version 2
run General-0-20220608-12:25:24-13536
attr configname General
attr datetime 20220608-12:25:24
attr experiment General
attr inifile omnetpp.ini
attr iterationvars ""
attr iterationvarsf ""
attr measurement ""
attr network WirelessHostsWithAP_eter2
attr processid 13536
attr repetition 0
attr replication #0
attr resultdir results
attr runnumber 0
attr seedset 0
param *.configurator.addStaticRoutes false
param *.radioMedium.obstacleLoss.typename "\"DielectricObstacleLoss\""
param *.*.*.*.*.errorModel.typename "\"Ieee80211NistErrorModel\""
param *.radioMedium.pathLoss.typename "\"TwoRayInterference\""
param *.radioMedium.backgroundNoise.power -92dBm
param *.physicalEnvironment.spaceMinX 0m
param *.physicalEnvironment.spaceMinY 0m
param *.physicalEnvironment.spaceMinZ 0m
param *.physicalEnvironment.spaceMaxX 200m
param *.physicalEnvironment.spaceMaxY 80m
param *.physicalEnvironment.spaceMaxZ 25m
param **.initialZ 0m
param *.UWBsensor*.**.sendInterval 20ms
param *.Camerasensor*.**.sendInterval 50ms
param *.Lidarsensor*.**.sendInterval 100ms
param **.baseStation.numApps 1
param **.baseStation.app[0].typename "\"UdpEchoAppMLfW_eter2\""
param **.baseStation.app[*].localPort 2000
param **.UWBsensor1.numApps 1
param *.UWBsensor1.wlan[*].opMode "\"g(mixed)\""
param **.UWBsensor1.app[*].typename "\"UdpBasicAppMLfW_group3\""
param *.UWBsensor1.app[0].destAddresses "\"baseStation\""
param *.UWBsensor1.app[0].destPort 2000
param *.UWBsensor1.app[0].localPort 1000
param *.UWBsensor1.app[0].messageLength 1474B
param *.UWBsensor1.wlan[*].mac.*.rateSelection.dataFrameBitrate 54Mbps
param *.UWBsensor1.mobility.typename "\"RectangleMobility\""
param *.UWBsensor1.mobility.startPos 0
param *.UWBsensor1.mobility.speed 0mps
param *.UWBsensor1.mobility.constraintAreaMinX 0m
param *.UWBsensor1.mobility.constraintAreaMinY 0m
param *.UWBsensor1.mobility.constraintAreaMinZ 0m
param *.UWBsensor1.mobility.constraintAreaMaxX 1m
param *.UWBsensor1.mobility.constraintAreaMaxY 1m
param *.UWBsensor1.mobility.constraintAreaMaxZ 1m
param *.UWBsensor2.wlan[*].opMode "\"g(mixed)\""
param **.UWBsensor2.numApps 1
param **.UWBsensor2.app[0].typename "\"UdpBasicAppMLfW_group3\""
param **.UWBsensor2.app[0].destPort 2000
param *.UWBsensor2.app[0].localPort 1001
param *.UWBsensor2.app[0].messageLength 1474B
param *.UWBsensor2.app[0].destAddresses "\"baseStation\""
param *.UWBsensor2.mobility.typename "\"RectangleMobility\""
param *.UWBsensor2.mobility.startPos 0.5
param *.UWBsensor2.mobility.speed 0mps
param *.UWBsensor2.mobility.constraintAreaMinX 20m
param *.UWBsensor2.mobility.constraintAreaMinY 0m
param *.UWBsensor2.mobility.constraintAreaMinZ 0m
param *.UWBsensor2.mobility.constraintAreaMaxX 21m
param *.UWBsensor2.mobility.constraintAreaMaxY 1m
param *.UWBsensor2.mobility.constraintAreaMaxZ 1m
param *.UWBsensor2.wlan[*].mac.*.rateControl.initialRate 54Mbps
param *.UWBsensor2.wlan[*].mac.*.rateSelection.dataFrameBitrate 54Mbps
param *.Camerasensor1.wlan[*].opMode "\"g(mixed)\""
param **.Camerasensor1.numApps 1
param **.Camerasensor1.app[0].typename "\"UdpBasicAppMLfW_group2\""
param **.Camerasensor1.app[0].destPort 2000
param *.Camerasensor1.app[0].localPort 1004
param *.Camerasensor1.app[0].messageLength 1474B
param *.Camerasensor1.app[0].destAddresses "\"baseStation\""
param *.Camerasensor1.mobility.typename "\"RectangleMobility\""
param *.Camerasensor1.mobility.startPos 0.5
param *.Camerasensor1.mobility.speed 0mps
param *.Camerasensor1.mobility.constraintAreaMinX 10m
param *.Camerasensor1.mobility.constraintAreaMinY 0m
param *.Camerasensor1.mobility.constraintAreaMinZ 0m
param *.Camerasensor1.mobility.constraintAreaMaxX 11m
param *.Camerasensor1.mobility.constraintAreaMaxY 1m
param *.Camerasensor1.mobility.constraintAreaMaxZ 1m
param *.Camerasensor1.wlan[*].mac.*.rateControl.initialRate 54Mbps
param *.Camerasensor1.wlan[*].mac.*.rateSelection.dataFrameBitrate 54Mbps
param *.Camerasensor2.wlan[*].opMode "\"g(mixed)\""
param **.Camerasensor2.numApps 1
param **.Camerasensor2.app[0].typename "\"UdpBasicAppMLfW_group2\""
param **.Camerasensor2.app[0].destPort 2000
param *.Camerasensor2.app[0].localPort 1005
param *.Camerasensor2.app[0].messageLength 1474B
param *.Camerasensor2.app[0].destAddresses "\"baseStation\""
param *.Camerasensor2.mobility.typename "\"RectangleMobility\""
param *.Camerasensor2.mobility.startPos 0.5
param *.Camerasensor2.mobility.speed 0mps
param *.Camerasensor2.mobility.constraintAreaMinX 20m
param *.Camerasensor2.mobility.constraintAreaMinY 10m
param *.Camerasensor2.mobility.constraintAreaMinZ 0m
param *.Camerasensor2.mobility.constraintAreaMaxX 21m
param *.Camerasensor2.mobility.constraintAreaMaxY 11m
param *.Camerasensor2.mobility.constraintAreaMaxZ 1m
param *.Camerasensor2.wlan[*].mac.*.rateControl.initialRate 54Mbps
param *.Camerasensor2.wlan[*].mac.*.rateSelection.dataFrameBitrate 54Mbps
param *.Lidarsensor1.wlan[*].opMode "\"g(mixed)\""
param **.Lidarsensor1.numApps 1
param **.Lidarsensor1.app[0].typename "\"UdpBasicAppMLfW_group1\""
param **.Lidarsensor1.app[0].destPort 2000
param *.Lidarsensor1.app[0].localPort 1006
param *.Lidarsensor1.app[0].messageLength 1474B
param *.Lidarsensor1.app[0].destAddresses "\"baseStation\""
param *.Lidarsensor1.mobility.typename "\"RectangleMobility\""
param *.Lidarsensor1.mobility.startPos 0.5
param *.Lidarsensor1.mobility.speed 0mps
param *.Lidarsensor1.mobility.constraintAreaMinX 10m
param *.Lidarsensor1.mobility.constraintAreaMinY 20m
param *.Lidarsensor1.mobility.constraintAreaMinZ 0m
param *.Lidarsensor1.mobility.constraintAreaMaxX 11m
param *.Lidarsensor1.mobility.constraintAreaMaxY 21m
param *.Lidarsensor1.mobility.constraintAreaMaxZ 1m
param *.Lidarsensor1.wlan[*].mac.*.rateControl.initialRate 54Mbps
param *.Lidarsensor1.wlan[*].mac.*.rateSelection.dataFrameBitrate 54Mbps

scalar WirelessHostsWithAP_eter2.baseStation.app[0] state 0
scalar WirelessHostsWithAP_eter2.baseStation.app[0] action 89
scalar WirelessHostsWithAP_eter2.baseStation.app[0] trac 7.5100040435791
scalar WirelessHostsWithAP_eter2.baseStation.app[0] trac 7.5200147628784
scalar WirelessHostsWithAP_eter2.baseStation.app[0] trac 7.5300340652466
scalar WirelessHostsWithAP_eter2.baseStation.app[0] trac 7.540060043335
scalar WirelessHostsWithAP_eter2.baseStation.app[0] trac 7.550094127655
scalar WirelessHostsWithAP_eter2.baseStation.app[0] trac 7.5601358413696
scalar WirelessHostsWithAP_eter2.baseStation.app[0] trac 7.5701847076416
scalar WirelessHostsWithAP_eter2.baseStation.app[0] trac 7.5802412033081
scalar WirelessHostsWithAP_eter2.baseStation.app[0] trac 7.5903058052063
scalar WirelessHostsWithAP_eter2.baseStation.app[0] trac 7.600378036499
scalar WirelessHostsWithAP_eter2.baseStation.app[0] trac 7.6104578971863
scalar WirelessHostsWithAP_eter2.baseStation.app[0] trac 7.6205453872681
scalar WirelessHostsWithAP_eter2.baseStation.app[0] trac 7.6306409835815
scalar WirelessHostsWithAP_eter2.baseStation.app[0] trac 7.6407437324524
scalar WirelessHostsWithAP_eter2.baseStation.app[0] trac 7.6508545875549
scalar WirelessHostsWithAP_eter2.baseStation.app[0] trac 7.6609735488892
scalar WirelessHostsWithAP_eter2.baseStation.app[0] trac 7.6710996627808
scalar WirelessHostsWithAP_eter2.baseStation.app[0] trac 7.6812338829041
scalar WirelessHostsWithAP_eter2.baseStation.app[0] trac 7.6913757324219
scalar WirelessHostsWithAP_eter2.baseStation.app[0] trac 7.7015256881714
scalar WirelessHostsWithAP_eter2.baseStation.app[0] trac 7.7116842269897
scalar WirelessHostsWithAP_eter2.baseStation.app[0] trac 7.7218499183655
scalar WirelessHostsWithAP_eter2.baseStation.app[0] trac 7.7320237159729
scalar WirelessHostsWithAP_eter2.baseStation.app[0] trac 7.742205619812
scalar WirelessHostsWithAP_eter2.baseStation.app[0] trac 7.7523951530457
scalar WirelessHostsWithAP_eter2.baseStation.app[0] trac 7.762592792511
scalar WirelessHostsWithAP_eter2.baseStation.app[0] trac 7.772798538208
scalar WirelessHostsWithAP_eter2.baseStation.app[0] trac 7.7830128669739
scalar WirelessHostsWithAP_eter2.baseStation.app[0] trac 7.7932348251343
scalar WirelessHostsWithAP_eter2.baseStation.app[0] trac 8.8010301589966
scalar WirelessHostsWithAP_eter2.baseStation.app[0] trac 8.8135967254639
scalar WirelessHostsWithAP_eter2.baseStation.app[0] trac 8.8261804580688
scalar WirelessHostsWithAP_eter2.baseStation.app[0] trac 8.8387813568115
scalar WirelessHostsWithAP_eter2.baseStation.app[0] trac 8.8513984680176
scalar WirelessHostsWithAP_eter2.baseStation.app[0] trac 8.864031791687
scalar WirelessHostsWithAP_eter2.baseStation.app[0] trac 8.8766822814941
scalar WirelessHostsWithAP_eter2.baseStation.app[0] trac 8.889349937439
scalar WirelessHostsWithAP_eter2.baseStation.app[0] trac 8.3602676391602
scalar WirelessHostsWithAP_eter2.baseStation.app[0] trac 8.3725814819336
scalar WirelessHostsWithAP_eter2.baseStation.app[0] trac 8.3849105834961
scalar WirelessHostsWithAP_eter2.baseStation.app[0] trac 8.3972568511963
scalar WirelessHostsWithAP_eter2.baseStation.app[0] trac 8.4096183776855
scalar WirelessHostsWithAP_eter2.baseStation.app[0] trac 8.4219961166382
scalar WirelessHostsWithAP_eter2.baseStation.app[0] trac 7.9252572059631
scalar WirelessHostsWithAP_eter2.baseStation.app[0] trac 7.9373393058777
scalar WirelessHostsWithAP_eter2.baseStation.app[0] trac 7.5867300033569
scalar WirelessHostsWithAP_eter2.baseStation.app[0] trac 7.5984878540039
scalar WirelessHostsWithAP_eter2.baseStation.app[0] trac 7.6102609634399
scalar WirelessHostsWithAP_eter2.baseStation.app[0] trac 7.6220483779907
scalar WirelessHostsWithAP_eter2.baseStation.app[0] trac 7.6338505744934
scalar WirelessHostsWithAP_eter2.baseStation.app[0] trac 7.6456680297852
scalar WirelessHostsWithAP_eter2.baseStation.app[0] trac 7.6574997901917
scalar WirelessHostsWithAP_eter2.baseStation.app[0] trac 7.6693468093872
scalar WirelessHostsWithAP_eter2.baseStation.app[0] trac 7.6812086105347
scalar WirelessHostsWithAP_eter2.baseStation.app[0] trac 7.693085193634
scalar WirelessHostsWithAP_eter2.baseStation.app[0] trac 7.7049765586853
scalar WirelessHostsWithAP_eter2.baseStation.app[0] trac 7.7168831825256
scalar WirelessHostsWithAP_eter2.baseStation.app[0] trac 7.7288045883179
scalar WirelessHostsWithAP_eter2.baseStation.app[0] trac 7.7407412528992
scalar WirelessHostsWithAP_eter2.baseStation.app[0] trac 7.4885168075562
scalar WirelessHostsWithAP_eter2.baseStation.app[0] trac 7.500319480896
scalar WirelessHostsWithAP_eter2.baseStation.app[0] trac 7.5121369361877
scalar WirelessHostsWithAP_eter2.baseStation.app[0] trac 7.5239686965942
scalar WirelessHostsWithAP_eter2.baseStation.app[0] trac 7.5358152389526
scalar WirelessHostsWithAP_eter2.baseStation.app[0] trac 7.2583866119385
scalar WirelessHostsWithAP_eter2.baseStation.app[0] trac 7.2701258659363
scalar WirelessHostsWithAP_eter2.baseStation.app[0] trac 7.2818794250488
scalar WirelessHostsWithAP_eter2.baseStation.app[0] trac 7.293646812439
scalar WirelessHostsWithAP_eter2.baseStation.app[0] trac 7.3054285049438
scalar WirelessHostsWithAP_eter2.baseStation.app[0] trac 7.3172240257263
scalar WirelessHostsWithAP_eter2.baseStation.app[0] trac 7.3290338516235
scalar WirelessHostsWithAP_eter2.baseStation.app[0] trac 7.3408584594727
scalar WirelessHostsWithAP_eter2.baseStation.app[0] trac 7.3526964187622
scalar WirelessHostsWithAP_eter2.baseStation.app[0] trac 7.3645491600037
scalar WirelessHostsWithAP_eter2.baseStation.app[0] trac 7.3764162063599
scalar WirelessHostsWithAP_eter2.baseStation.app[0] trac 7.3882975578308
scalar WirelessHostsWithAP_eter2.baseStation.app[0] trac 7.4001932144165
scalar WirelessHostsWithAP_eter2.baseStation.app[0] trac 7.4121026992798
scalar WirelessHostsWithAP_eter2.baseStation.app[0] trac 7.424026966095
scalar WirelessHostsWithAP_eter2.baseStation.app[0] trac 7.1677260398865
scalar WirelessHostsWithAP_eter2.baseStation.app[0] trac 7.179518699646
scalar WirelessHostsWithAP_eter2.baseStation.app[0] trac 7.1913251876831
scalar WirelessHostsWithAP_eter2.baseStation.app[0] trac 7.2031455039978
scalar WirelessHostsWithAP_eter2.baseStation.app[0] trac 7.2149801254272
scalar WirelessHostsWithAP_eter2.baseStation.app[0] trac 7.2268280982971
scalar WirelessHostsWithAP_eter2.baseStation.app[0] trac 6.9379367828369
scalar WirelessHostsWithAP_eter2.baseStation.app[0] trac 6.9496650695801
scalar WirelessHostsWithAP_eter2.baseStation.app[0] trac 6.9614067077637
scalar WirelessHostsWithAP_eter2.baseStation.app[0] trac 6.9731616973877
scalar WirelessHostsWithAP_eter2.baseStation.app[0] trac 6.9849305152893
scalar WirelessHostsWithAP_eter2.baseStation.app[0] trac 6.9967126846313
scalar WirelessHostsWithAP_eter2.baseStation.app[0] trac 7.008508682251
scalar WirelessHostsWithAP_eter2.baseStation.app[0] trac 7.020318031311
scalar WirelessHostsWithAP_eter2.baseStation.app[0] trac 7.0321407318115
scalar WirelessHostsWithAP_eter2.baseStation.app[0] trac 7.0439777374268
scalar WirelessHostsWithAP_eter2.baseStation.app[0] trac 7.0558276176453
scalar WirelessHostsWithAP_eter2.baseStation.app[0] trac 7.0676918029785
scalar WirelessHostsWithAP_eter2.baseStation.app[0] trac 7.0795693397522
scalar WirelessHostsWithAP_eter2.baseStation.app[0] trac 7.0914602279663
scalar WirelessHostsWithAP_eter2.baseStation.app[0] trac 7.1033654212952
scalar WirelessHostsWithAP_eter2.baseStation.app[0] trac 6.8523063659668
scalar WirelessHostsWithAP_eter2.baseStation.app[0] trac 6.8640928268433
scalar WirelessHostsWithAP_eter2.baseStation.app[0] trac 6.875892162323
scalar WirelessHostsWithAP_eter2.baseStation.app[0] trac 6.8877053260803
scalar WirelessHostsWithAP_eter2.baseStation.app[0] trac 6.8995318412781
scalar WirelessHostsWithAP_eter2.baseStation.app[0] trac 6.6141624450684
scalar WirelessHostsWithAP_eter2.baseStation.app[0] trac 6.6258702278137
scalar WirelessHostsWithAP_eter2.baseStation.app[0] trac 6.6375913619995
scalar WirelessHostsWithAP_eter2.baseStation.app[0] trac 6.6493248939514
scalar WirelessHostsWithAP_eter2.baseStation.app[0] trac 6.6610713005066
scalar WirelessHostsWithAP_eter2.baseStation.app[0] trac 6.6728310585022
scalar WirelessHostsWithAP_eter2.baseStation.app[0] trac 6.6846032142639
scalar WirelessHostsWithAP_eter2.baseStation.app[0] trac 6.6963887214661
scalar WirelessHostsWithAP_eter2.baseStation.app[0] trac 6.7081871032715
scalar WirelessHostsWithAP_eter2.baseStation.app[0] trac 6.719997882843
scalar WirelessHostsWithAP_eter2.baseStation.app[0] trac 6.7318224906921
scalar WirelessHostsWithAP_eter2.baseStation.app[0] trac 6.7436594963074
scalar WirelessHostsWithAP_eter2.baseStation.app[0] trac 6.755509853363
scalar WirelessHostsWithAP_eter2.baseStation.app[0] trac 6.767373085022
scalar WirelessHostsWithAP_eter2.baseStation.app[0] trac 6.7792496681213
scalar WirelessHostsWithAP_eter2.baseStation.app[0] trac 6.791139125824
scalar WirelessHostsWithAP_eter2.baseStation.app[0] trac 6.5445194244385
scalar WirelessHostsWithAP_eter2.baseStation.app[0] trac 6.5563006401062
scalar WirelessHostsWithAP_eter2.baseStation.app[0] trac 6.5680947303772
scalar WirelessHostsWithAP_eter2.baseStation.app[0] trac 6.5799012184143
scalar WirelessHostsWithAP_eter2.baseStation.app[0] trac 6.5917205810547
scalar WirelessHostsWithAP_eter2.baseStation.app[0] trac 6.6035523414612
scalar WirelessHostsWithAP_eter2.baseStation.app[0] trac 6.3045663833618
scalar WirelessHostsWithAP_eter2.baseStation.app[0] trac 6.3162655830383
scalar WirelessHostsWithAP_eter2.baseStation.app[0] trac 6.3279767036438
scalar WirelessHostsWithAP_eter2.baseStation.app[0] trac 6.3397002220154
scalar WirelessHostsWithAP_eter2.baseStation.app[0] trac 6.3514361381531
scalar WirelessHostsWithAP_eter2.baseStation.app[0] trac 6.3631839752197
scalar WirelessHostsWithAP_eter2.baseStation.app[0] trac 6.3749442100525
scalar WirelessHostsWithAP_eter2.baseStation.app[0] trac 6.3867168426514
scalar WirelessHostsWithAP_eter2.baseStation.app[0] trac 6.3985018730164
scalar WirelessHostsWithAP_eter2.baseStation.app[0] trac 6.4102993011475
scalar WirelessHostsWithAP_eter2.baseStation.app[0] trac 6.4221086502075
scalar WirelessHostsWithAP_eter2.baseStation.app[0] trac 6.4339308738708
scalar WirelessHostsWithAP_eter2.baseStation.app[0] trac 6.4457654953003
scalar WirelessHostsWithAP_eter2.baseStation.app[0] trac 6.4576125144958
scalar WirelessHostsWithAP_eter2.baseStation.app[0] trac 6.3417091369629
scalar WirelessHostsWithAP_eter2.baseStation.app[0] trac 6.1261506080627
scalar WirelessHostsWithAP_eter2.baseStation.app[0] trac 6.1378064155579
scalar WirelessHostsWithAP_eter2.baseStation.app[0] trac 6.1494746208191
scalar WirelessHostsWithAP_eter2.baseStation.app[0] trac 6.1611542701721
scalar WirelessHostsWithAP_eter2.baseStation.app[0] trac 5.8486318588257
scalar WirelessHostsWithAP_eter2.baseStation.app[0] trac 5.8601408004761
scalar WirelessHostsWithAP_eter2.baseStation.app[0] trac 5.6609268188477
scalar WirelessHostsWithAP_eter2.baseStation.app[0] trac 5.67236328125
scalar WirelessHostsWithAP_eter2.baseStation.app[0] trac 5.683810710907
scalar WirelessHostsWithAP_eter2.baseStation.app[0] trac 5.6952686309814
scalar WirelessHostsWithAP_eter2.baseStation.app[0] trac 5.7067384719849
scalar WirelessHostsWithAP_eter2.baseStation.app[0] trac 5.7182188034058
scalar WirelessHostsWithAP_eter2.baseStation.app[0] trac 5.7297105789185
scalar WirelessHostsWithAP_eter2.baseStation.app[0] trac 5.7412133216858
scalar WirelessHostsWithAP_eter2.baseStation.app[0] trac 5.7527270317078
scalar WirelessHostsWithAP_eter2.baseStation.app[0] trac 5.7642521858215
scalar WirelessHostsWithAP_eter2.baseStation.app[0] trac 5.7757887840271
scalar WirelessHostsWithAP_eter2.baseStation.app[0] trac 5.7873363494873
scalar WirelessHostsWithAP_eter2.baseStation.app[0] trac 5.7988953590393
scalar WirelessHostsWithAP_eter2.baseStation.app[0] trac 5.8104653358459
scalar WirelessHostsWithAP_eter2.baseStation.app[0] trac 5.8220467567444
scalar WirelessHostsWithAP_eter2.baseStation.app[0] trac 5.8336391448975
scalar WirelessHostsWithAP_eter2.baseStation.app[0] trac 5.6630859375
scalar WirelessHostsWithAP_eter2.baseStation.app[0] trac 5.6746187210083
scalar WirelessHostsWithAP_eter2.baseStation.app[0] trac 5.6861624717712
scalar WirelessHostsWithAP_eter2.baseStation.app[0] trac 5.6977171897888
scalar WirelessHostsWithAP_eter2.baseStation.app[0] trac 5.7092833518982
scalar WirelessHostsWithAP_eter2.baseStation.app[0] trac 5.4901714324951
scalar WirelessHostsWithAP_eter2.baseStation.app[0] trac 5.5016541481018
scalar WirelessHostsWithAP_eter2.baseStation.app[0] trac 5.513147354126
scalar WirelessHostsWithAP_eter2.baseStation.app[0] trac 5.5246515274048
scalar WirelessHostsWithAP_eter2.baseStation.app[0] trac 5.5361661911011
scalar WirelessHostsWithAP_eter2.baseStation.app[0] trac 5.547691822052
scalar WirelessHostsWithAP_eter2.baseStation.app[0] trac 5.5592279434204
scalar WirelessHostsWithAP_eter2.baseStation.app[0] trac 5.5707750320435
scalar WirelessHostsWithAP_eter2.baseStation.app[0] trac 5.5823330879211
scalar WirelessHostsWithAP_eter2.baseStation.app[0] trac 5.5939016342163
scalar WirelessHostsWithAP_eter2.baseStation.app[0] trac 5.6054811477661
scalar WirelessHostsWithAP_eter2.baseStation.app[0] trac 5.6170716285706
scalar WirelessHostsWithAP_eter2.baseStation.app[0] trac 5.6286725997925
scalar WirelessHostsWithAP_eter2.baseStation.app[0] trac 5.6402850151062
scalar WirelessHostsWithAP_eter2.baseStation.app[0] trac 5.6519079208374
scalar WirelessHostsWithAP_eter2.baseStation.app[0] trac 5.4640111923218
scalar WirelessHostsWithAP_eter2.baseStation.app[0] trac 5.4755640029907
scalar WirelessHostsWithAP_eter2.baseStation.app[0] trac 5.4871277809143
scalar WirelessHostsWithAP_eter2.baseStation.app[0] trac 5.4987020492554
scalar WirelessHostsWithAP_eter2.baseStation.app[0] trac 5.5102872848511
scalar WirelessHostsWithAP_eter2.baseStation.app[0] trac 5.5218830108643
scalar WirelessHostsWithAP_eter2.baseStation.app[0] trac 5.2987365722656
scalar WirelessHostsWithAP_eter2.baseStation.app[0] trac 5.3102498054504
scalar WirelessHostsWithAP_eter2.baseStation.app[0] trac 5.3217730522156
scalar WirelessHostsWithAP_eter2.baseStation.app[0] trac 5.333306312561
scalar WirelessHostsWithAP_eter2.baseStation.app[0] trac 5.344850063324
scalar WirelessHostsWithAP_eter2.baseStation.app[0] trac 5.3564043045044
scalar WirelessHostsWithAP_eter2.baseStation.app[0] trac 5.3679690361023
scalar WirelessHostsWithAP_eter2.baseStation.app[0] trac 5.3795437812805
scalar WirelessHostsWithAP_eter2.baseStation.app[0] trac 5.3911294937134
scalar WirelessHostsWithAP_eter2.baseStation.app[0] trac 5.4027252197266
scalar WirelessHostsWithAP_eter2.baseStation.app[0] trac 5.4143314361572
scalar WirelessHostsWithAP_eter2.baseStation.app[0] trac 5.4259481430054
scalar WirelessHostsWithAP_eter2.baseStation.app[0] trac 5.437575340271
scalar WirelessHostsWithAP_eter2.baseStation.app[0] trac 5.4492130279541
scalar WirelessHostsWithAP_eter2.baseStation.app[0] trac 5.4608612060547
scalar WirelessHostsWithAP_eter2.baseStation.app[0] trac 5.2572131156921
scalar WirelessHostsWithAP_eter2.baseStation.app[0] trac 5.2687749862671
scalar WirelessHostsWithAP_eter2.baseStation.app[0] trac 5.2803473472595
scalar WirelessHostsWithAP_eter2.baseStation.app[0] trac 5.2919297218323
scalar WirelessHostsWithAP_eter2.baseStation.app[0] trac 5.3035225868225
scalar WirelessHostsWithAP_eter2.baseStation.app[0] trac 5.3151254653931
scalar WirelessHostsWithAP_eter2.baseStation.app[0] trac 5.0866084098816
scalar WirelessHostsWithAP_eter2.baseStation.app[0] trac 5.0981221199036
scalar WirelessHostsWithAP_eter2.baseStation.app[0] trac 5.1096458435059
scalar WirelessHostsWithAP_eter2.baseStation.app[0] trac 5.1211795806885
scalar WirelessHostsWithAP_eter2.baseStation.app[0] trac 5.1327228546143
scalar WirelessHostsWithAP_eter2.baseStation.app[0] trac 5.1442761421204
scalar WirelessHostsWithAP_eter2.baseStation.app[0] trac 5.1558394432068
scalar WirelessHostsWithAP_eter2.baseStation.app[0] trac 5.1674127578735
scalar WirelessHostsWithAP_eter2.baseStation.app[0] trac 5.1789960861206
scalar WirelessHostsWithAP_eter2.baseStation.app[0] trac 5.190589427948
scalar WirelessHostsWithAP_eter2.baseStation.app[0] trac 5.2021923065186
scalar WirelessHostsWithAP_eter2.baseStation.app[0] trac 5.2138056755066
scalar WirelessHostsWithAP_eter2.baseStation.app[0] trac 5.225429058075
scalar WirelessHostsWithAP_eter2.baseStation.app[0] trac 5.2370624542236
scalar WirelessHostsWithAP_eter2.baseStation.app[0] trac 5.2487058639526
scalar WirelessHostsWithAP_eter2.baseStation.app[0] trac 5.0462694168091
scalar WirelessHostsWithAP_eter2.baseStation.app[0] trac 5.0578289031982
scalar WirelessHostsWithAP_eter2.baseStation.app[0] trac 5.0693979263306
scalar WirelessHostsWithAP_eter2.baseStation.app[0] trac 5.0809769630432
scalar WirelessHostsWithAP_eter2.baseStation.app[0] trac 5.0925660133362
scalar WirelessHostsWithAP_eter2.baseStation.app[0] trac 5.1041646003723
scalar WirelessHostsWithAP_eter2.baseStation.app[0] trac 5.1157732009888
scalar WirelessHostsWithAP_eter2.baseStation.app[0] trac 4.8739857673645
scalar WirelessHostsWithAP_eter2.baseStation.app[0] trac 4.8854899406433
scalar WirelessHostsWithAP_eter2.baseStation.app[0] trac 4.8970036506653
scalar WirelessHostsWithAP_eter2.baseStation.app[0] trac 4.9085268974304
scalar WirelessHostsWithAP_eter2.baseStation.app[0] trac 4.9200596809387
scalar WirelessHostsWithAP_eter2.baseStation.app[0] trac 4.9316020011902
scalar WirelessHostsWithAP_eter2.baseStation.app[0] trac 4.9431533813477
scalar WirelessHostsWithAP_eter2.baseStation.app[0] trac 4.9547147750854
scalar WirelessHostsWithAP_eter2.baseStation.app[0] trac 4.9662852287292
scalar WirelessHostsWithAP_eter2.baseStation.app[0] trac 4.9778652191162
scalar WirelessHostsWithAP_eter2.baseStation.app[0] trac 4.9894552230835
scalar WirelessHostsWithAP_eter2.baseStation.app[0] trac 5.0010547637939
scalar WirelessHostsWithAP_eter2.baseStation.app[0] trac 5.0126633644104
scalar WirelessHostsWithAP_eter2.baseStation.app[0] trac 5.0242819786072
scalar WirelessHostsWithAP_eter2.baseStation.app[0] trac 4.8324589729309
scalar WirelessHostsWithAP_eter2.baseStation.app[0] trac 4.8439989089966
scalar WirelessHostsWithAP_eter2.baseStation.app[0] trac 4.8555483818054
scalar WirelessHostsWithAP_eter2.baseStation.app[0] trac 4.4176111221313
scalar WirelessHostsWithAP_eter2.baseStation.app[0] trac 4.334897518158
scalar WirelessHostsWithAP_eter2.baseStation.app[0] trac 4.3461389541626
scalar WirelessHostsWithAP_eter2.baseStation.app[0] trac 4.3573884963989
scalar WirelessHostsWithAP_eter2.baseStation.app[0] trac 4.2225575447083
scalar WirelessHostsWithAP_eter2.baseStation.app[0] trac 4.2337594032288
scalar WirelessHostsWithAP_eter2.baseStation.app[0] trac 4.244969367981
scalar WirelessHostsWithAP_eter2.baseStation.app[0] trac 4.2561874389648
scalar WirelessHostsWithAP_eter2.baseStation.app[0] trac 4.2674136161804
scalar WirelessHostsWithAP_eter2.baseStation.app[0] trac 4.2786483764648
scalar WirelessHostsWithAP_eter2.baseStation.app[0] trac 4.289891242981
scalar WirelessHostsWithAP_eter2.baseStation.app[0] trac 4.3011426925659
scalar WirelessHostsWithAP_eter2.baseStation.app[0] trac 4.3124022483826
scalar WirelessHostsWithAP_eter2.baseStation.app[0] trac 4.3236703872681
scalar WirelessHostsWithAP_eter2.baseStation.app[0] trac 4.3349466323853
scalar WirelessHostsWithAP_eter2.baseStation.app[0] trac 4.3462309837341
scalar WirelessHostsWithAP_eter2.baseStation.app[0] trac 4.357524394989
scalar WirelessHostsWithAP_eter2.baseStation.app[0] trac 4.3688259124756
scalar WirelessHostsWithAP_eter2.baseStation.app[0] trac 4.2384166717529
scalar WirelessHostsWithAP_eter2.baseStation.app[0] trac 4.2496647834778
scalar WirelessHostsWithAP_eter2.baseStation.app[0] trac 4.2609210014343
scalar WirelessHostsWithAP_eter2.baseStation.app[0] trac 4.2721858024597
scalar WirelessHostsWithAP_eter2.baseStation.app[0] trac 4.2834582328796
scalar WirelessHostsWithAP_eter2.baseStation.app[0] trac 4.2947397232056
scalar WirelessHostsWithAP_eter2.baseStation.app[0] trac 4.306028842926
scalar WirelessHostsWithAP_eter2.baseStation.app[0] trac 4.1507029533386
scalar WirelessHostsWithAP_eter2.baseStation.app[0] trac 4.1619296073914
scalar WirelessHostsWithAP_eter2.baseStation.app[0] trac 4.1731643676758
scalar WirelessHostsWithAP_eter2.baseStation.app[0] trac 4.1844072341919
scalar WirelessHostsWithAP_eter2.baseStation.app[0] trac 4.1956577301025
scalar WirelessHostsWithAP_eter2.baseStation.app[0] trac 4.206916809082
scalar WirelessHostsWithAP_eter2.baseStation.app[0] trac 4.2181839942932
scalar WirelessHostsWithAP_eter2.baseStation.app[0] trac 4.2294592857361
scalar WirelessHostsWithAP_eter2.baseStation.app[0] trac 4.2407426834106
scalar WirelessHostsWithAP_eter2.baseStation.app[0] trac 4.2520341873169
scalar WirelessHostsWithAP_eter2.baseStation.app[0] trac 4.2633337974548
scalar WirelessHostsWithAP_eter2.baseStation.app[0] trac 4.2746419906616
scalar WirelessHostsWithAP_eter2.baseStation.app[0] trac 4.2859582901001
scalar WirelessHostsWithAP_eter2.baseStation.app[0] trac 4.2972826957703
scalar WirelessHostsWithAP_eter2.baseStation.app[0] trac 4.1663026809692
scalar WirelessHostsWithAP_eter2.baseStation.app[0] trac 4.177574634552
scalar WirelessHostsWithAP_eter2.baseStation.app[0] trac 4.1888546943665
scalar WirelessHostsWithAP_eter2.baseStation.app[0] trac 4.2001428604126
scalar WirelessHostsWithAP_eter2.baseStation.app[0] trac 4.2114386558533
scalar WirelessHostsWithAP_eter2.baseStation.app[0] trac 4.2227430343628
scalar WirelessHostsWithAP_eter2.baseStation.app[0] trac 4.0713210105896
scalar WirelessHostsWithAP_eter2.baseStation.app[0] trac 4.08256483078
scalar WirelessHostsWithAP_eter2.baseStation.app[0] trac 4.093816280365
scalar WirelessHostsWithAP_eter2.baseStation.app[0] trac 4.1050758361816
scalar WirelessHostsWithAP_eter2.baseStation.app[0] trac 4.1163430213928
scalar WirelessHostsWithAP_eter2.baseStation.app[0] trac 4.1163430213928
scalar WirelessHostsWithAP_eter2.baseStation.app[0] trac 4.1276183128357
scalar WirelessHostsWithAP_eter2.baseStation.app[0] trac 4.1389017105103
scalar WirelessHostsWithAP_eter2.baseStation.app[0] trac 4.1501927375793
scalar WirelessHostsWithAP_eter2.baseStation.app[0] trac 4.1614923477173
scalar WirelessHostsWithAP_eter2.baseStation.app[0] trac 4.1727995872498
scalar WirelessHostsWithAP_eter2.baseStation.app[0] trac 4.1841149330139
scalar WirelessHostsWithAP_eter2.baseStation.app[0] trac 4.1954383850098
scalar WirelessHostsWithAP_eter2.baseStation.app[0] trac 4.2067699432373
scalar WirelessHostsWithAP_eter2.baseStation.app[0] trac 4.2181096076965
scalar WirelessHostsWithAP_eter2.baseStation.app[0] trac 4.2294573783875
scalar WirelessHostsWithAP_eter2.baseStation.app[0] trac 4.2408132553101
scalar WirelessHostsWithAP_eter2.baseStation.app[0] trac 4.2521772384644
scalar WirelessHostsWithAP_eter2.baseStation.app[0] trac 4.2635493278503
scalar WirelessHostsWithAP_eter2.baseStation.app[0] trac 4.2749300003052
scalar WirelessHostsWithAP_eter2.baseStation.app[0] trac 4.2863183021545
scalar WirelessHostsWithAP_eter2.baseStation.app[0] trac 4.2977151870728
scalar WirelessHostsWithAP_eter2.baseStation.app[0] trac 4.1386475563049
scalar WirelessHostsWithAP_eter2.baseStation.app[0] trac 4.1499719619751
scalar WirelessHostsWithAP_eter2.baseStation.app[0] trac 4.161304473877
scalar WirelessHostsWithAP_eter2.baseStation.app[0] trac 4.1726455688477
scalar WirelessHostsWithAP_eter2.baseStation.app[0] trac 4.010039806366
scalar WirelessHostsWithAP_eter2.baseStation.app[0] trac 4.0213117599487
scalar WirelessHostsWithAP_eter2.baseStation.app[0] trac 4.0325908660889
scalar WirelessHostsWithAP_eter2.baseStation.app[0] trac 4.0438780784607
scalar WirelessHostsWithAP_eter2.baseStation.app[0] trac 4.0551733970642
scalar WirelessHostsWithAP_eter2.baseStation.app[0] trac 4.0664758682251
scalar WirelessHostsWithAP_eter2.baseStation.app[0] trac 4.0777864456177
scalar WirelessHostsWithAP_eter2.baseStation.app[0] trac 4.0891046524048
scalar WirelessHostsWithAP_eter2.baseStation.app[0] trac 4.1004309654236
scalar WirelessHostsWithAP_eter2.baseStation.app[0] trac 4.1117653846741
scalar WirelessHostsWithAP_eter2.baseStation.app[0] trac 4.1231069564819
scalar WirelessHostsWithAP_eter2.baseStation.app[0] trac 4.1344571113586
scalar WirelessHostsWithAP_eter2.baseStation.app[0] trac 4.1458148956299
scalar WirelessHostsWithAP_eter2.baseStation.app[0] trac 4.1571803092957
scalar WirelessHostsWithAP_eter2.baseStation.app[0] trac 4.1685543060303
scalar WirelessHostsWithAP_eter2.baseStation.app[0] trac 4.1799359321594
scalar WirelessHostsWithAP_eter2.baseStation.app[0] trac 4.1913261413574
scalar WirelessHostsWithAP_eter2.baseStation.app[0] trac 4.20272397995
scalar WirelessHostsWithAP_eter2.baseStation.app[0] trac 4.0311970710754
scalar WirelessHostsWithAP_eter2.baseStation.app[0] trac 4.0425119400024
scalar WirelessHostsWithAP_eter2.baseStation.app[0] trac 4.053834438324
scalar WirelessHostsWithAP_eter2.baseStation.app[0] trac 4.06516456604
scalar WirelessHostsWithAP_eter2.baseStation.app[0] trac 3.9039063453674
scalar WirelessHostsWithAP_eter2.baseStation.app[0] trac 3.9151656627655
scalar WirelessHostsWithAP_eter2.baseStation.app[0] trac 3.9264326095581
scalar WirelessHostsWithAP_eter2.baseStation.app[0] trac 3.9377069473267
scalar WirelessHostsWithAP_eter2.baseStation.app[0] trac 3.9489889144897
scalar WirelessHostsWithAP_eter2.baseStation.app[0] trac 3.9602782726288
scalar WirelessHostsWithAP_eter2.baseStation.app[0] trac 3.9715752601624
scalar WirelessHostsWithAP_eter2.baseStation.app[0] trac 3.9828798770905
scalar WirelessHostsWithAP_eter2.baseStation.app[0] trac 3.9941921234131
scalar WirelessHostsWithAP_eter2.baseStation.app[0] trac 4.0055122375488
scalar WirelessHostsWithAP_eter2.baseStation.app[0] trac 4.0168399810791
scalar WirelessHostsWithAP_eter2.baseStation.app[0] trac 4.0281748771667
scalar WirelessHostsWithAP_eter2.baseStation.app[0] trac 4.0395178794861
scalar WirelessHostsWithAP_eter2.baseStation.app[0] trac 4.0508685112
scalar WirelessHostsWithAP_eter2.baseStation.app[0] trac 4.0622272491455
scalar WirelessHostsWithAP_eter2.baseStation.app[0] trac 4.0735931396484
scalar WirelessHostsWithAP_eter2.baseStation.app[0] trac 4.0849671363831
scalar WirelessHostsWithAP_eter2.baseStation.app[0] trac 3.9264545440674
scalar WirelessHostsWithAP_eter2.baseStation.app[0] trac 3.5683071613312
scalar WirelessHostsWithAP_eter2.baseStation.app[0] trac 3.5793900489807
scalar WirelessHostsWithAP_eter2.baseStation.app[0] trac 3.4771611690521
scalar WirelessHostsWithAP_eter2.baseStation.app[0] trac 3.4882018566132
scalar WirelessHostsWithAP_eter2.baseStation.app[0] trac 3.4992492198944
scalar WirelessHostsWithAP_eter2.baseStation.app[0] trac 3.5103034973145
scalar WirelessHostsWithAP_eter2.baseStation.app[0] trac 3.5213644504547
scalar WirelessHostsWithAP_eter2.baseStation.app[0] trac 3.5324323177338
scalar WirelessHostsWithAP_eter2.baseStation.app[0] trac 3.543506860733
scalar WirelessHostsWithAP_eter2.baseStation.app[0] trac 3.5545880794525
scalar WirelessHostsWithAP_eter2.baseStation.app[0] trac 3.5656762123108
scalar WirelessHostsWithAP_eter2.baseStation.app[0] trac 3.455379486084
scalar WirelessHostsWithAP_eter2.baseStation.app[0] trac 3.4663987159729
scalar WirelessHostsWithAP_eter2.baseStation.app[0] trac 3.477424621582
scalar WirelessHostsWithAP_eter2.baseStation.app[0] trac 3.48845744133
scalar WirelessHostsWithAP_eter2.baseStation.app[0] trac 3.4994969367981
scalar WirelessHostsWithAP_eter2.baseStation.app[0] trac 3.5105428695679
scalar WirelessHostsWithAP_eter2.baseStation.app[0] trac 3.521595954895
scalar WirelessHostsWithAP_eter2.baseStation.app[0] trac 3.5326557159424
scalar WirelessHostsWithAP_eter2.baseStation.app[0] trac 3.54372215271
scalar WirelessHostsWithAP_eter2.baseStation.app[0] trac 3.4435231685638
scalar WirelessHostsWithAP_eter2.baseStation.app[0] trac 3.4545447826385
scalar WirelessHostsWithAP_eter2.baseStation.app[0] trac 3.4655728340149
scalar WirelessHostsWithAP_eter2.baseStation.app[0] trac 3.3748788833618
scalar WirelessHostsWithAP_eter2.baseStation.app[0] trac 3.3858709335327
scalar WirelessHostsWithAP_eter2.baseStation.app[0] trac 3.3968696594238
scalar WirelessHostsWithAP_eter2.baseStation.app[0] trac 3.4078750610352
scalar WirelessHostsWithAP_eter2.baseStation.app[0] trac 3.4188868999481
scalar WirelessHostsWithAP_eter2.baseStation.app[0] trac 3.4299054145813
scalar WirelessHostsWithAP_eter2.baseStation.app[0] trac 3.4409303665161
scalar WirelessHostsWithAP_eter2.baseStation.app[0] trac 3.4519619941711
scalar WirelessHostsWithAP_eter2.baseStation.app[0] trac 3.4630002975464
scalar WirelessHostsWithAP_eter2.baseStation.app[0] trac 3.4740452766418
scalar WirelessHostsWithAP_eter2.baseStation.app[0] trac 3.4850971698761
scalar WirelessHostsWithAP_eter2.baseStation.app[0] trac 3.496155500412
scalar WirelessHostsWithAP_eter2.baseStation.app[0] trac 3.5072205066681
scalar WirelessHostsWithAP_eter2.baseStation.app[0] trac 3.518292427063
scalar WirelessHostsWithAP_eter2.baseStation.app[0] trac 3.5293710231781
scalar WirelessHostsWithAP_eter2.baseStation.app[0] trac 3.540456533432
scalar WirelessHostsWithAP_eter2.baseStation.app[0] trac 3.5515487194061
scalar WirelessHostsWithAP_eter2.baseStation.app[0] trac 3.562647819519
scalar WirelessHostsWithAP_eter2.baseStation.app[0] trac 3.4649860858917
scalar WirelessHostsWithAP_eter2.baseStation.app[0] trac 3.4760417938232
scalar WirelessHostsWithAP_eter2.baseStation.app[0] trac 3.4871039390564
scalar WirelessHostsWithAP_eter2.baseStation.app[0] trac 3.3887341022491
scalar WirelessHostsWithAP_eter2.baseStation.app[0] trac 3.3997557163239
scalar WirelessHostsWithAP_eter2.baseStation.app[0] trac 3.4107837677002
scalar WirelessHostsWithAP_eter2.baseStation.app[0] trac 3.4218184947968
scalar WirelessHostsWithAP_eter2.baseStation.app[0] trac 3.4328598976135
scalar WirelessHostsWithAP_eter2.baseStation.app[0] trac 3.4439077377319
scalar WirelessHostsWithAP_eter2.baseStation.app[0] trac 3.4549622535706
scalar WirelessHostsWithAP_eter2.baseStation.app[0] trac 3.4660232067108
scalar WirelessHostsWithAP_eter2.baseStation.app[0] trac 3.4770910739899
scalar WirelessHostsWithAP_eter2.baseStation.app[0] trac 3.4881653785706
scalar WirelessHostsWithAP_eter2.baseStation.app[0] trac 3.49924659729
scalar WirelessHostsWithAP_eter2.baseStation.app[0] trac 3.5103344917297
scalar WirelessHostsWithAP_eter2.baseStation.app[0] trac 3.5214290618896
scalar WirelessHostsWithAP_eter2.baseStation.app[0] trac 3.5325305461884
scalar WirelessHostsWithAP_eter2.baseStation.app[0] trac 3.5436387062073
scalar WirelessHostsWithAP_eter2.baseStation.app[0] trac 3.554753780365
scalar WirelessHostsWithAP_eter2.baseStation.app[0] trac 3.5658755302429
scalar WirelessHostsWithAP_eter2.baseStation.app[0] trac 3.5770041942596
scalar WirelessHostsWithAP_eter2.baseStation.app[0] trac 3.4627633094788
scalar WirelessHostsWithAP_eter2.baseStation.app[0] trac 3.473837852478
scalar WirelessHostsWithAP_eter2.baseStation.app[0] trac 3.4849190711975
scalar WirelessHostsWithAP_eter2.baseStation.app[0] trac 3.3915748596191
scalar WirelessHostsWithAP_eter2.baseStation.app[0] trac 3.402617931366
scalar WirelessHostsWithAP_eter2.baseStation.app[0] trac 3.4136674404144
scalar WirelessHostsWithAP_eter2.baseStation.app[0] trac 3.4247233867645
scalar WirelessHostsWithAP_eter2.baseStation.app[0] trac 3.4357860088348
scalar WirelessHostsWithAP_eter2.baseStation.app[0] trac 3.4468553066254
scalar WirelessHostsWithAP_eter2.baseStation.app[0] trac 3.4579312801361
scalar WirelessHostsWithAP_eter2.baseStation.app[0] trac 3.4690136909485
scalar WirelessHostsWithAP_eter2.baseStation.app[0] trac 3.4801027774811
scalar WirelessHostsWithAP_eter2.baseStation.app[0] trac 3.4911987781525
scalar WirelessHostsWithAP_eter2.baseStation.app[0] trac 3.5023012161255
scalar WirelessHostsWithAP_eter2.baseStation.app[0] trac 3.5134105682373
scalar WirelessHostsWithAP_eter2.baseStation.app[0] trac 3.5245263576508
scalar WirelessHostsWithAP_eter2.baseStation.app[0] trac 3.535649061203
scalar WirelessHostsWithAP_eter2.baseStation.app[0] trac 3.546778678894
scalar WirelessHostsWithAP_eter2.baseStation.app[0] trac 3.5579149723053
scalar WirelessHostsWithAP_eter2.baseStation.app[0] trac 3.5690581798553
scalar WirelessHostsWithAP_eter2.baseStation.app[0] trac 3.4509632587433
scalar WirelessHostsWithAP_eter2.baseStation.app[0] trac 3.4620492458344
scalar WirelessHostsWithAP_eter2.baseStation.app[0] trac 3.4731419086456
scalar WirelessHostsWithAP_eter2.baseStation.app[0] trac 3.4842412471771
scalar WirelessHostsWithAP_eter2.baseStation.app[0] trac 3.4953470230103
scalar WirelessHostsWithAP_eter2.baseStation.app[0] trac 3.3864076137543
scalar WirelessHostsWithAP_eter2.baseStation.app[0] trac 3.3974649906158
scalar WirelessHostsWithAP_eter2.baseStation.app[0] trac 3.4085290431976
scalar WirelessHostsWithAP_eter2.baseStation.app[0] trac 3.4195997714996
scalar WirelessHostsWithAP_eter2.baseStation.app[0] trac 3.4306769371033
scalar WirelessHostsWithAP_eter2.baseStation.app[0] trac 3.4417605400085
scalar WirelessHostsWithAP_eter2.baseStation.app[0] trac 3.452850818634
scalar WirelessHostsWithAP_eter2.baseStation.app[0] trac 3.4639477729797
scalar WirelessHostsWithAP_eter2.baseStation.app[0] trac 3.4750514030457
scalar WirelessHostsWithAP_eter2.baseStation.app[0] trac 3.4861614704132
scalar WirelessHostsWithAP_eter2.baseStation.app[0] trac 3.4972784519196
scalar WirelessHostsWithAP_eter2.baseStation.app[0] trac 3.5084021091461
scalar WirelessHostsWithAP_eter2.baseStation.app[0] trac 3.5195324420929
scalar WirelessHostsWithAP_eter2.baseStation.app[0] trac 3.5306694507599
scalar WirelessHostsWithAP_eter2.baseStation.app[0] trac 3.5418131351471
scalar WirelessHostsWithAP_eter2.baseStation.app[0] trac 3.5529637336731
scalar WirelessHostsWithAP_eter2.baseStation.app[0] trac 3.2554666996002
scalar WirelessHostsWithAP_eter2.baseStation.app[0] trac 3.1804428100586
scalar WirelessHostsWithAP_eter2.baseStation.app[0] trac 3.1913778781891
scalar WirelessHostsWithAP_eter2.baseStation.app[0] trac 3.2023193836212
scalar WirelessHostsWithAP_eter2.baseStation.app[0] trac 3.2132668495178
scalar WirelessHostsWithAP_eter2.baseStation.app[0] trac 3.2242205142975
scalar WirelessHostsWithAP_eter2.baseStation.app[0] trac 3.1469852924347
scalar WirelessHostsWithAP_eter2.baseStation.app[0] trac 3.1579070091248
scalar WirelessHostsWithAP_eter2.baseStation.app[0] trac 3.1688346862793
scalar WirelessHostsWithAP_eter2.baseStation.app[0] trac 3.1797683238983
scalar WirelessHostsWithAP_eter2.baseStation.app[0] trac 3.1907081604004
scalar WirelessHostsWithAP_eter2.baseStation.app[0] trac 3.2016541957855
scalar WirelessHostsWithAP_eter2.baseStation.app[0] trac 3.2126064300537
scalar WirelessHostsWithAP_eter2.baseStation.app[0] trac 3.223564863205
scalar WirelessHostsWithAP_eter2.baseStation.app[0] trac 3.2345292568207
scalar WirelessHostsWithAP_eter2.baseStation.app[0] trac 3.245500087738
scalar WirelessHostsWithAP_eter2.baseStation.app[0] trac 3.2564771175385
scalar WirelessHostsWithAP_eter2.baseStation.app[0] trac 3.2674603462219
scalar WirelessHostsWithAP_eter2.baseStation.app[0] trac 3.278450012207
scalar WirelessHostsWithAP_eter2.baseStation.app[0] trac 3.2894458770752
scalar WirelessHostsWithAP_eter2.baseStation.app[0] trac 3.300448179245
scalar WirelessHostsWithAP_eter2.baseStation.app[0] trac 3.1979093551636
scalar WirelessHostsWithAP_eter2.baseStation.app[0] trac 3.1398406028748
scalar WirelessHostsWithAP_eter2.baseStation.app[0] trac 3.1507470607758
scalar WirelessHostsWithAP_eter2.baseStation.app[0] trac 3.1616594791412
scalar WirelessHostsWithAP_eter2.baseStation.app[0] trac 3.1725778579712
scalar WirelessHostsWithAP_eter2.baseStation.app[0] trac 3.1022343635559
scalar WirelessHostsWithAP_eter2.baseStation.app[0] trac 3.1131250858307
scalar WirelessHostsWithAP_eter2.baseStation.app[0] trac 3.1240217685699
scalar WirelessHostsWithAP_eter2.baseStation.app[0] trac 3.1349244117737
scalar WirelessHostsWithAP_eter2.baseStation.app[0] trac 3.1458332538605
scalar WirelessHostsWithAP_eter2.baseStation.app[0] trac 3.1567480564117
scalar WirelessHostsWithAP_eter2.baseStation.app[0] trac 3.1676690578461
scalar WirelessHostsWithAP_eter2.baseStation.app[0] trac 3.1785962581635
scalar WirelessHostsWithAP_eter2.baseStation.app[0] trac 3.1895294189453
scalar WirelessHostsWithAP_eter2.baseStation.app[0] trac 3.2004685401917
scalar WirelessHostsWithAP_eter2.baseStation.app[0] trac 3.2114140987396
scalar WirelessHostsWithAP_eter2.baseStation.app[0] trac 3.2223658561707
scalar WirelessHostsWithAP_eter2.baseStation.app[0] trac 3.2333235740662
scalar WirelessHostsWithAP_eter2.baseStation.app[0] trac 3.2442877292633
scalar WirelessHostsWithAP_eter2.baseStation.app[0] trac 3.2552580833435
scalar WirelessHostsWithAP_eter2.baseStation.app[0] trac 3.2662346363068
scalar WirelessHostsWithAP_eter2.baseStation.app[0] trac 3.1997575759888
scalar WirelessHostsWithAP_eter2.baseStation.app[0] trac 3.2107062339783
scalar WirelessHostsWithAP_eter2.baseStation.app[0] trac 3.2216610908508
scalar WirelessHostsWithAP_eter2.baseStation.app[0] trac 3.2326221466064
scalar WirelessHostsWithAP_eter2.baseStation.app[0] trac 3.2435894012451
scalar WirelessHostsWithAP_eter2.baseStation.app[0] trac 3.2545628547668
scalar WirelessHostsWithAP_eter2.baseStation.app[0] trac 3.1637568473816
scalar WirelessHostsWithAP_eter2.baseStation.app[0] trac 3.1746912002563
scalar WirelessHostsWithAP_eter2.baseStation.app[0] trac 3.1856315135956
scalar WirelessHostsWithAP_eter2.baseStation.app[0] trac 3.1965780258179
scalar WirelessHostsWithAP_eter2.baseStation.app[0] trac 3.2075304985046
scalar WirelessHostsWithAP_eter2.baseStation.app[0] trac 3.218489408493
scalar WirelessHostsWithAP_eter2.baseStation.app[0] trac 3.2294542789459
scalar WirelessHostsWithAP_eter2.baseStation.app[0] trac 3.2404255867004
scalar WirelessHostsWithAP_eter2.baseStation.app[0] trac 3.2514028549194
scalar WirelessHostsWithAP_eter2.baseStation.app[0] trac 3.2623865604401
scalar WirelessHostsWithAP_eter2.baseStation.app[0] trac 3.2733764648438
scalar WirelessHostsWithAP_eter2.baseStation.app[0] trac 3.2843728065491
scalar WirelessHostsWithAP_eter2.baseStation.app[0] trac 3.2953753471375
scalar WirelessHostsWithAP_eter2.baseStation.app[0] trac 3.3063843250275
scalar WirelessHostsWithAP_eter2.baseStation.app[0] trac 3.2435164451599
scalar WirelessHostsWithAP_eter2.baseStation.app[0] trac 3.2544994354248
scalar WirelessHostsWithAP_eter2.baseStation.app[0] trac 3.2654886245728
scalar WirelessHostsWithAP_eter2.baseStation.app[0] trac 3.2764840126038
scalar WirelessHostsWithAP_eter2.baseStation.app[0] trac 3.2874855995178
scalar WirelessHostsWithAP_eter2.baseStation.app[0] trac 3.2984936237335
scalar WirelessHostsWithAP_eter2.baseStation.app[0] trac 3.3095080852509
scalar WirelessHostsWithAP_eter2.baseStation.app[0] trac 3.2102456092834
scalar WirelessHostsWithAP_eter2.baseStation.app[0] trac 3.2212157249451
scalar WirelessHostsWithAP_eter2.baseStation.app[0] trac 3.2321920394897
scalar WirelessHostsWithAP_eter2.baseStation.app[0] trac 3.2431745529175
scalar WirelessHostsWithAP_eter2.baseStation.app[0] trac 3.2541632652283
scalar WirelessHostsWithAP_eter2.baseStation.app[0] trac 3.2651581764221
scalar WirelessHostsWithAP_eter2.baseStation.app[0] trac 3.276159286499
scalar WirelessHostsWithAP_eter2.baseStation.app[0] trac 3.2871668338776
scalar WirelessHostsWithAP_eter2.baseStation.app[0] trac 3.2981805801392
scalar WirelessHostsWithAP_eter2.baseStation.app[0] trac 3.3092007637024
scalar WirelessHostsWithAP_eter2.baseStation.app[0] trac 3.3202271461487
scalar WirelessHostsWithAP_eter2.baseStation.app[0] trac 3.3312602043152
scalar WirelessHostsWithAP_eter2.baseStation.app[0] trac 3.3422994613647
scalar WirelessHostsWithAP_eter2.baseStation.app[0] trac 3.3533451557159
scalar WirelessHostsWithAP_eter2.baseStation.app[0] trac 3.2634108066559
scalar WirelessHostsWithAP_eter2.baseStation.app[0] trac 3.2744145393372
scalar WirelessHostsWithAP_eter2.baseStation.app[0] trac 3.2854244709015
scalar WirelessHostsWithAP_eter2.baseStation.app[0] trac 3.2964406013489
scalar WirelessHostsWithAP_eter2.baseStation.app[0] trac 3.3074631690979
scalar WirelessHostsWithAP_eter2.baseStation.app[0] trac 3.3184921741486
scalar WirelessHostsWithAP_eter2.baseStation.app[0] trac 3.2256534099579
scalar WirelessHostsWithAP_eter2.baseStation.app[0] trac 3.2366411685944
scalar WirelessHostsWithAP_eter2.baseStation.app[0] trac 3.2476351261139
scalar WirelessHostsWithAP_eter2.baseStation.app[0] trac 3.2586355209351
scalar WirelessHostsWithAP_eter2.baseStation.app[0] trac 3.2696418762207
scalar WirelessHostsWithAP_eter2.baseStation.app[0] trac 3.280654668808
scalar WirelessHostsWithAP_eter2.baseStation.app[0] trac 3.2916738986969
scalar WirelessHostsWithAP_eter2.baseStation.app[0] trac 3.3026990890503
scalar WirelessHostsWithAP_eter2.baseStation.app[0] trac 3.3137309551239
scalar WirelessHostsWithAP_eter2.baseStation.app[0] trac 3.3247690200806
scalar WirelessHostsWithAP_eter2.baseStation.app[0] trac 3.3358132839203
scalar WirelessHostsWithAP_eter2.baseStation.app[0] trac 3.3468642234802
scalar WirelessHostsWithAP_eter2.baseStation.app[0] trac 3.3579213619232
scalar WirelessHostsWithAP_eter2.baseStation.app[0] trac 3.3689851760864
scalar WirelessHostsWithAP_eter2.baseStation.app[0] trac 3.1264793872833
scalar WirelessHostsWithAP_eter2.baseStation.app[0] trac 3.1373977661133
scalar WirelessHostsWithAP_eter2.baseStation.app[0] trac 3.0703728199005
scalar WirelessHostsWithAP_eter2.baseStation.app[0] trac 3.0812616348267
scalar WirelessHostsWithAP_eter2.baseStation.app[0] trac 3.0921564102173
scalar WirelessHostsWithAP_eter2.baseStation.app[0] trac 3.1030569076538
scalar WirelessHostsWithAP_eter2.baseStation.app[0] trac 3.0354752540588
scalar WirelessHostsWithAP_eter2.baseStation.app[0] trac 3.0463480949402
scalar WirelessHostsWithAP_eter2.baseStation.app[0] trac 3.057226896286
scalar WirelessHostsWithAP_eter2.baseStation.app[0] trac 3.0681116580963
scalar WirelessHostsWithAP_eter2.baseStation.app[0] trac 3.0790023803711
scalar WirelessHostsWithAP_eter2.baseStation.app[0] trac 3.0898988246918
scalar WirelessHostsWithAP_eter2.baseStation.app[0] trac 3.1008014678955
scalar WirelessHostsWithAP_eter2.baseStation.app[0] trac 3.1117098331451
scalar WirelessHostsWithAP_eter2.baseStation.app[0] trac 3.1226243972778
scalar WirelessHostsWithAP_eter2.baseStation.app[0] trac 3.1335446834564
scalar WirelessHostsWithAP_eter2.baseStation.app[0] trac 3.1444711685181
scalar WirelessHostsWithAP_eter2.baseStation.app[0] trac 3.1554038524628
scalar WirelessHostsWithAP_eter2.baseStation.app[0] trac 3.1663424968719
scalar WirelessHostsWithAP_eter2.baseStation.app[0] trac 3.1772871017456
scalar WirelessHostsWithAP_eter2.baseStation.app[0] trac 3.1882379055023
scalar WirelessHostsWithAP_eter2.baseStation.app[0] trac 3.1991949081421
scalar WirelessHostsWithAP_eter2.baseStation.app[0] trac 3.2101578712463
scalar WirelessHostsWithAP_eter2.baseStation.app[0] trac 3.2211272716522
scalar WirelessHostsWithAP_eter2.baseStation.app[0] trac 3.1353225708008
scalar WirelessHostsWithAP_eter2.baseStation.app[0] trac 3.1462516784668
scalar WirelessHostsWithAP_eter2.baseStation.app[0] trac 3.1571869850159
scalar WirelessHostsWithAP_eter2.baseStation.app[0] trac 3.1681282520294
scalar WirelessHostsWithAP_eter2.baseStation.app[0] trac 3.0928404331207
scalar WirelessHostsWithAP_eter2.baseStation.app[0] trac 3.1037497520447
scalar WirelessHostsWithAP_eter2.baseStation.app[0] trac 3.0264163017273
scalar WirelessHostsWithAP_eter2.baseStation.app[0] trac 3.0372745990753
scalar WirelessHostsWithAP_eter2.baseStation.app[0] trac 3.0481383800507
scalar WirelessHostsWithAP_eter2.baseStation.app[0] trac 3.0590083599091
scalar WirelessHostsWithAP_eter2.baseStation.app[0] trac 3.0590083599091
scalar WirelessHostsWithAP_eter2.baseStation.app[0] trac 3.0698840618134
scalar WirelessHostsWithAP_eter2.baseStation.app[0] trac 3.0807657241821
scalar WirelessHostsWithAP_eter2.baseStation.app[0] trac 3.0916533470154
scalar WirelessHostsWithAP_eter2.baseStation.app[0] trac 3.1025469303131
scalar WirelessHostsWithAP_eter2.baseStation.app[0] trac 3.1134464740753
scalar WirelessHostsWithAP_eter2.baseStation.app[0] trac 3.1243522167206
scalar WirelessHostsWithAP_eter2.baseStation.app[0] trac 3.1352636814117
scalar WirelessHostsWithAP_eter2.baseStation.app[0] trac 3.146181344986
scalar WirelessHostsWithAP_eter2.baseStation.app[0] trac 3.1571049690247
scalar WirelessHostsWithAP_eter2.baseStation.app[0] trac 3.1680347919464
scalar WirelessHostsWithAP_eter2.baseStation.app[0] trac 3.1789708137512
scalar WirelessHostsWithAP_eter2.baseStation.app[0] trac 3.1899127960205
scalar WirelessHostsWithAP_eter2.baseStation.app[0] trac 3.2008607387543
scalar WirelessHostsWithAP_eter2.baseStation.app[0] trac 3.2118151187897
scalar WirelessHostsWithAP_eter2.baseStation.app[0] trac 3.2227756977081
scalar WirelessHostsWithAP_eter2.baseStation.app[0] trac 3.2337422370911
scalar WirelessHostsWithAP_eter2.baseStation.app[0] trac 3.1539397239685
scalar WirelessHostsWithAP_eter2.baseStation.app[0] trac 3.1648733615875
scalar WirelessHostsWithAP_eter2.baseStation.app[0] trac 3.175812959671
scalar WirelessHostsWithAP_eter2.baseStation.app[0] trac 3.1867587566376
scalar WirelessHostsWithAP_eter2.baseStation.app[0] trac 3.1010746955872
scalar WirelessHostsWithAP_eter2.baseStation.app[0] trac 3.111983537674
scalar WirelessHostsWithAP_eter2.baseStation.app[0] trac 3.1228983402252
scalar WirelessHostsWithAP_eter2.baseStation.app[0] trac 3.133819103241
scalar WirelessHostsWithAP_eter2.baseStation.app[0] trac 3.1447460651398
scalar WirelessHostsWithAP_eter2.baseStation.app[0] trac 3.1556789875031
scalar WirelessHostsWithAP_eter2.baseStation.app[0] trac 3.1666178703308
scalar WirelessHostsWithAP_eter2.baseStation.app[0] trac 3.1775629520416
scalar WirelessHostsWithAP_eter2.baseStation.app[0] trac 3.1885142326355
scalar WirelessHostsWithAP_eter2.baseStation.app[0] trac 3.1994714736938
scalar WirelessHostsWithAP_eter2.baseStation.app[0] trac 3.2104349136353
scalar WirelessHostsWithAP_eter2.baseStation.app[0] trac 3.2214045524597
scalar WirelessHostsWithAP_eter2.baseStation.app[0] trac 3.2323803901672
scalar WirelessHostsWithAP_eter2.baseStation.app[0] trac 3.2433624267578
scalar WirelessHostsWithAP_eter2.baseStation.app[0] trac 3.2543506622314
scalar WirelessHostsWithAP_eter2.baseStation.app[0] trac 3.2653453350067
scalar WirelessHostsWithAP_eter2.baseStation.app[0] trac 3.2763459682465
scalar WirelessHostsWithAP_eter2.baseStation.app[0] trac 3.1797397136688
scalar WirelessHostsWithAP_eter2.baseStation.app[0] trac 3.1906976699829
scalar WirelessHostsWithAP_eter2.baseStation.app[0] trac 3.2016615867615
scalar WirelessHostsWithAP_eter2.baseStation.app[0] trac 3.2126317024231
scalar WirelessHostsWithAP_eter2.baseStation.app[0] trac 3.1219811439514
scalar WirelessHostsWithAP_eter2.baseStation.app[0] trac 3.1329109668732
scalar WirelessHostsWithAP_eter2.baseStation.app[0] trac 3.143846988678
scalar WirelessHostsWithAP_eter2.baseStation.app[0] trac 3.1547889709473
scalar WirelessHostsWithAP_eter2.baseStation.app[0] trac 3.165736913681
scalar WirelessHostsWithAP_eter2.baseStation.app[0] trac 3.1766910552979
scalar WirelessHostsWithAP_eter2.baseStation.app[0] trac 3.1876511573792
scalar WirelessHostsWithAP_eter2.baseStation.app[0] trac 3.1986174583435
scalar WirelessHostsWithAP_eter2.baseStation.app[0] trac 3.2095899581909
scalar WirelessHostsWithAP_eter2.baseStation.app[0] trac 3.2205686569214
scalar WirelessHostsWithAP_eter2.baseStation.app[0] trac 3.2315535545349
scalar WirelessHostsWithAP_eter2.baseStation.app[0] trac 3.2425444126129
scalar WirelessHostsWithAP_eter2.baseStation.app[0] trac 3.2535417079926
scalar WirelessHostsWithAP_eter2.baseStation.app[0] trac 3.2645452022552
scalar WirelessHostsWithAP_eter2.baseStation.app[0] trac 3.275554895401
scalar WirelessHostsWithAP_eter2.baseStation.app[0] trac 3.2865710258484
scalar WirelessHostsWithAP_eter2.baseStation.app[0] trac 3.2975933551788
scalar WirelessHostsWithAP_eter2.baseStation.app[0] trac 3.1962909698486
scalar WirelessHostsWithAP_eter2.baseStation.app[0] trac 3.2072672843933
scalar WirelessHostsWithAP_eter2.baseStation.app[0] trac 3.2182495594025
scalar WirelessHostsWithAP_eter2.baseStation.app[0] trac 3.2292380332947
scalar WirelessHostsWithAP_eter2.baseStation.app[0] trac 3.1444194316864
scalar WirelessHostsWithAP_eter2.baseStation.app[0] trac 3.1553704738617
scalar WirelessHostsWithAP_eter2.baseStation.app[0] trac 3.1663274765015
scalar WirelessHostsWithAP_eter2.baseStation.app[0] trac 3.1772906780243
scalar WirelessHostsWithAP_eter2.baseStation.app[0] trac 3.1882600784302
scalar WirelessHostsWithAP_eter2.baseStation.app[0] trac 3.1992354393005
scalar WirelessHostsWithAP_eter2.baseStation.app[0] trac 3.210216999054
scalar WirelessHostsWithAP_eter2.baseStation.app[0] trac 3.2212045192719
scalar WirelessHostsWithAP_eter2.baseStation.app[0] trac 3.2321984767914
scalar WirelessHostsWithAP_eter2.baseStation.app[0] trac 3.2431983947754
scalar WirelessHostsWithAP_eter2.baseStation.app[0] trac 3.254204750061
scalar WirelessHostsWithAP_eter2.baseStation.app[0] trac 3.2652173042297
scalar WirelessHostsWithAP_eter2.baseStation.app[0] trac 3.2762360572815
scalar WirelessHostsWithAP_eter2.baseStation.app[0] trac 3.2872610092163
scalar WirelessHostsWithAP_eter2.baseStation.app[0] trac 3.0611498355865
scalar WirelessHostsWithAP_eter2.baseStation.app[0] trac 3.0720386505127
scalar WirelessHostsWithAP_eter2.baseStation.app[0] trac 3.0065071582794
scalar WirelessHostsWithAP_eter2.baseStation.app[0] trac 3.0173690319061
scalar WirelessHostsWithAP_eter2.baseStation.app[0] trac 3.0282366275787
scalar WirelessHostsWithAP_eter2.baseStation.app[0] trac 3.0391101837158
scalar WirelessHostsWithAP_eter2.baseStation.app[0] trac 2.9762136936188
scalar WirelessHostsWithAP_eter2.baseStation.app[0] trac 2.9870615005493
scalar WirelessHostsWithAP_eter2.baseStation.app[0] trac 2.9979147911072
scalar WirelessHostsWithAP_eter2.baseStation.app[0] trac 3.0087740421295
scalar WirelessHostsWithAP_eter2.baseStation.app[0] trac 3.0196392536163
scalar WirelessHostsWithAP_eter2.baseStation.app[0] trac 3.030510187149
scalar WirelessHostsWithAP_eter2.baseStation.app[0] trac 3.0413868427277
scalar WirelessHostsWithAP_eter2.baseStation.app[0] trac 3.0522694587708
scalar WirelessHostsWithAP_eter2.baseStation.app[0] trac 3.0631577968597
scalar WirelessHostsWithAP_eter2.baseStation.app[0] trac 3.0740520954132
scalar WirelessHostsWithAP_eter2.baseStation.app[0] trac 3.0849523544312
scalar WirelessHostsWithAP_eter2.baseStation.app[0] trac 3.0958585739136
scalar WirelessHostsWithAP_eter2.baseStation.app[0] trac 3.1067707538605
scalar WirelessHostsWithAP_eter2.baseStation.app[0] trac 3.1176888942719
scalar WirelessHostsWithAP_eter2.baseStation.app[0] trac 3.1286129951477
scalar WirelessHostsWithAP_eter2.baseStation.app[0] trac 3.139543056488
scalar WirelessHostsWithAP_eter2.baseStation.app[0] trac 3.1504793167114
scalar WirelessHostsWithAP_eter2.baseStation.app[0] trac 3.0760548114777
scalar WirelessHostsWithAP_eter2.baseStation.app[0] trac 3.08695936203
scalar WirelessHostsWithAP_eter2.baseStation.app[0] trac 3.0978696346283
scalar WirelessHostsWithAP_eter2.baseStation.app[0] trac 3.1087861061096
scalar WirelessHostsWithAP_eter2.baseStation.app[0] trac 3.0281693935394
scalar WirelessHostsWithAP_eter2.baseStation.app[0] trac 3.0390501022339
scalar WirelessHostsWithAP_eter2.baseStation.app[0] trac 3.0499367713928
scalar WirelessHostsWithAP_eter2.baseStation.app[0] trac 3.0608294010162
scalar WirelessHostsWithAP_eter2.baseStation.app[0] trac 3.0717277526855
scalar WirelessHostsWithAP_eter2.baseStation.app[0] trac 3.0826320648193
scalar WirelessHostsWithAP_eter2.baseStation.app[0] trac 3.0935425758362
scalar WirelessHostsWithAP_eter2.baseStation.app[0] trac 3.1044585704803
scalar WirelessHostsWithAP_eter2.baseStation.app[0] trac 3.1153807640076
scalar WirelessHostsWithAP_eter2.baseStation.app[0] trac 3.1263091564178
scalar WirelessHostsWithAP_eter2.baseStation.app[0] trac 3.137243270874
scalar WirelessHostsWithAP_eter2.baseStation.app[0] trac 3.1481833457947
scalar WirelessHostsWithAP_eter2.baseStation.app[0] trac 3.0466544628143
scalar WirelessHostsWithAP_eter2.baseStation.app[0] trac 3.0575346946716
scalar WirelessHostsWithAP_eter2.baseStation.app[0] trac 3.0684206485748
scalar WirelessHostsWithAP_eter2.baseStation.app[0] trac 3.0793125629425
scalar WirelessHostsWithAP_eter2.baseStation.app[0] trac 3.0902101993561
scalar WirelessHostsWithAP_eter2.baseStation.app[0] trac 3.0131938457489
scalar WirelessHostsWithAP_eter2.baseStation.app[0] trac 3.02405834198
scalar WirelessHostsWithAP_eter2.baseStation.app[0] trac 3.0349287986755
scalar WirelessHostsWithAP_eter2.baseStation.app[0] trac 2.9725513458252
scalar WirelessHostsWithAP_eter2.baseStation.app[0] trac 2.9833960533142
scalar WirelessHostsWithAP_eter2.baseStation.app[0] trac 2.9942467212677
scalar WirelessHostsWithAP_eter2.baseStation.app[0] trac 3.0051031112671
scalar WirelessHostsWithAP_eter2.baseStation.app[0] trac 3.0159652233124
scalar WirelessHostsWithAP_eter2.baseStation.app[0] trac 3.0268332958221
scalar WirelessHostsWithAP_eter2.baseStation.app[0] trac 3.0377070903778
scalar WirelessHostsWithAP_eter2.baseStation.app[0] trac 3.0485866069794
scalar WirelessHostsWithAP_eter2.baseStation.app[0] trac 3.059472322464
scalar WirelessHostsWithAP_eter2.baseStation.app[0] trac 3.0703637599945
scalar WirelessHostsWithAP_eter2.baseStation.app[0] trac 3.0812609195709
scalar WirelessHostsWithAP_eter2.baseStation.app[0] trac 3.0921642780304
scalar WirelessHostsWithAP_eter2.baseStation.app[0] trac 3.1030733585358
scalar WirelessHostsWithAP_eter2.baseStation.app[0] trac 3.1139886379242
scalar WirelessHostsWithAP_eter2.baseStation.app[0] trac 3.1249098777771
scalar WirelessHostsWithAP_eter2.baseStation.app[0] trac 3.1358368396759
scalar WirelessHostsWithAP_eter2.baseStation.app[0] trac 3.1467702388763
scalar WirelessHostsWithAP_eter2.baseStation.app[0] trac 3.1577093601227
scalar WirelessHostsWithAP_eter2.baseStation.app[0] trac 3.0728988647461
scalar WirelessHostsWithAP_eter2.baseStation.app[0] trac 3.0838003158569
scalar WirelessHostsWithAP_eter2.baseStation.app[0] trac 3.0947079658508
scalar WirelessHostsWithAP_eter2.baseStation.app[0] trac 3.0156922340393
scalar WirelessHostsWithAP_eter2.baseStation.app[0] trac 3.0265650749207
scalar WirelessHostsWithAP_eter2.baseStation.app[0] trac 3.0374438762665
scalar WirelessHostsWithAP_eter2.baseStation.app[0] trac 3.0483283996582
scalar WirelessHostsWithAP_eter2.baseStation.app[0] trac 3.0592186450958
scalar WirelessHostsWithAP_eter2.baseStation.app[0] trac 3.0701148509979
scalar WirelessHostsWithAP_eter2.baseStation.app[0] trac 3.0810170173645
scalar WirelessHostsWithAP_eter2.baseStation.app[0] trac 3.0919251441956
scalar WirelessHostsWithAP_eter2.baseStation.app[0] trac 3.1028392314911
scalar WirelessHostsWithAP_eter2.baseStation.app[0] trac 3.1137592792511
scalar WirelessHostsWithAP_eter2.baseStation.app[0] trac 3.1246852874756
scalar WirelessHostsWithAP_eter2.baseStation.app[0] trac 3.1356172561646
scalar WirelessHostsWithAP_eter2.baseStation.app[0] trac 3.146555185318
scalar WirelessHostsWithAP_eter2.baseStation.app[0] trac 3.1574993133545
scalar WirelessHostsWithAP_eter2.baseStation.app[0] trac 3.1684494018555
scalar WirelessHostsWithAP_eter2.baseStation.app[0] trac 3.1794056892395
scalar WirelessHostsWithAP_eter2.baseStation.app[0] trac 3.190367937088
scalar WirelessHostsWithAP_eter2.baseStation.app[0] trac 3.1107413768768
scalar WirelessHostsWithAP_eter2.baseStation.app[0] trac 3.1216688156128
scalar WirelessHostsWithAP_eter2.baseStation.app[0] trac 3.1326022148132
scalar WirelessHostsWithAP_eter2.baseStation.app[0] trac 3.1435415744781
scalar WirelessHostsWithAP_eter2.baseStation.app[0] trac 3.0584366321564
scalar WirelessHostsWithAP_eter2.baseStation.app[0] trac 3.0693376064301
scalar WirelessHostsWithAP_eter2.baseStation.app[0] trac 3.0802445411682
scalar WirelessHostsWithAP_eter2.baseStation.app[0] trac 3.0911574363708
scalar WirelessHostsWithAP_eter2.baseStation.app[0] trac 3.102076292038
scalar WirelessHostsWithAP_eter2.baseStation.app[0] trac 3.113000869751
scalar WirelessHostsWithAP_eter2.baseStation.app[0] trac 3.123931646347
scalar WirelessHostsWithAP_eter2.baseStation.app[0] trac 3.1348683834076
scalar WirelessHostsWithAP_eter2.baseStation.app[0] trac 3.1458110809326
scalar WirelessHostsWithAP_eter2.baseStation.app[0] trac 3.1567599773407
scalar WirelessHostsWithAP_eter2.baseStation.app[0] trac 3.1677148342133
scalar WirelessHostsWithAP_eter2.baseStation.app[0] trac 3.1786756515503
scalar WirelessHostsWithAP_eter2.baseStation.app[0] trac 3.189642906189
scalar WirelessHostsWithAP_eter2.baseStation.app[0] trac 3.2006158828735
scalar WirelessHostsWithAP_eter2.baseStation.app[0] trac 3.0176863670349
scalar WirelessHostsWithAP_eter2.baseStation.app[0] trac 3.0285472869873
scalar WirelessHostsWithAP_eter2.baseStation.app[0] trac 3.0394141674042
scalar WirelessHostsWithAP_eter2.baseStation.app[0] trac 2.9679403305054
scalar WirelessHostsWithAP_eter2.baseStation.app[0] trac 2.9787764549255
scalar WirelessHostsWithAP_eter2.baseStation.app[0] trac 2.9896185398102
scalar WirelessHostsWithAP_eter2.baseStation.app[0] trac 3.0004663467407
scalar WirelessHostsWithAP_eter2.baseStation.app[0] trac 2.9321870803833
scalar WirelessHostsWithAP_eter2.baseStation.app[0] trac 2.9430060386658
scalar WirelessHostsWithAP_eter2.baseStation.app[0] trac 2.9538307189941
scalar WirelessHostsWithAP_eter2.baseStation.app[0] trac 2.9646608829498
scalar WirelessHostsWithAP_eter2.baseStation.app[0] trac 2.9754967689514
scalar WirelessHostsWithAP_eter2.baseStation.app[0] trac 2.9863386154175
scalar WirelessHostsWithAP_eter2.baseStation.app[0] trac 2.9971859455109
scalar WirelessHostsWithAP_eter2.baseStation.app[0] trac 3.0080392360687
scalar WirelessHostsWithAP_eter2.baseStation.app[0] trac 3.0188982486725
scalar WirelessHostsWithAP_eter2.baseStation.app[0] trac 3.0297632217407
scalar WirelessHostsWithAP_eter2.baseStation.app[0] trac 3.0406339168549
scalar WirelessHostsWithAP_eter2.baseStation.app[0] trac 3.0515105724335
scalar WirelessHostsWithAP_eter2.baseStation.app[0] trac 3.062392950058
scalar WirelessHostsWithAP_eter2.baseStation.app[0] trac 3.073281288147
scalar WirelessHostsWithAP_eter2.baseStation.app[0] trac 3.0841755867004
scalar WirelessHostsWithAP_eter2.baseStation.app[0] trac 3.0950756072998
scalar WirelessHostsWithAP_eter2.baseStation.app[0] trac 3.1059818267822
scalar WirelessHostsWithAP_eter2.baseStation.app[0] trac 3.1168940067291
scalar WirelessHostsWithAP_eter2.baseStation.app[0] trac 3.0372135639191
scalar WirelessHostsWithAP_eter2.baseStation.app[0] trac 3.0480906963348
scalar WirelessHostsWithAP_eter2.baseStation.app[0] trac 3.0589740276337
scalar WirelessHostsWithAP_eter2.baseStation.app[0] trac 2.9942934513092
scalar WirelessHostsWithAP_eter2.baseStation.app[0] trac 3.00514960289
scalar WirelessHostsWithAP_eter2.baseStation.app[0] trac 3.0160114765167
scalar WirelessHostsWithAP_eter2.baseStation.app[0] trac 3.0268790721893
scalar WirelessHostsWithAP_eter2.baseStation.app[0] trac 3.0377526283264
scalar WirelessHostsWithAP_eter2.baseStation.app[0] trac 3.0486319065094
scalar WirelessHostsWithAP_eter2.baseStation.app[0] trac 3.0595171451569
scalar WirelessHostsWithAP_eter2.baseStation.app[0] trac 3.0704083442688
scalar WirelessHostsWithAP_eter2.baseStation.app[0] trac 3.0813052654266
scalar WirelessHostsWithAP_eter2.baseStation.app[0] trac 2.9768671989441
scalar WirelessHostsWithAP_eter2.baseStation.app[0] trac 2.9877028465271
scalar WirelessHostsWithAP_eter2.baseStation.app[0] trac 2.998544216156
scalar WirelessHostsWithAP_eter2.baseStation.app[0] trac 3.0093913078308
scalar WirelessHostsWithAP_eter2.baseStation.app[0] trac 3.0202441215515
scalar WirelessHostsWithAP_eter2.baseStation.app[0] trac 3.0311028957367
scalar WirelessHostsWithAP_eter2.baseStation.app[0] trac 3.0419676303864
scalar WirelessHostsWithAP_eter2.baseStation.app[0] trac 3.0528380870819
scalar WirelessHostsWithAP_eter2.baseStation.app[0] trac 3.0637142658234
scalar WirelessHostsWithAP_eter2.baseStation.app[0] trac 3.0004870891571
scalar WirelessHostsWithAP_eter2.baseStation.app[0] trac 3.0113377571106
scalar WirelessHostsWithAP_eter2.baseStation.app[0] trac 3.02219414711
scalar WirelessHostsWithAP_eter2.baseStation.app[0] trac 3.0330564975739
scalar WirelessHostsWithAP_eter2.baseStation.app[0] trac 2.9623734951019
scalar WirelessHostsWithAP_eter2.baseStation.app[0] trac 2.9732058048248
scalar WirelessHostsWithAP_eter2.baseStation.app[0] trac 2.9840438365936
scalar WirelessHostsWithAP_eter2.baseStation.app[0] trac 2.9948875904083
scalar WirelessHostsWithAP_eter2.baseStation.app[0] trac 3.0057370662689
scalar WirelessHostsWithAP_eter2.baseStation.app[0] trac 3.016592502594
scalar WirelessHostsWithAP_eter2.baseStation.app[0] trac 3.027453660965
scalar WirelessHostsWithAP_eter2.baseStation.app[0] trac 3.0383205413818
scalar WirelessHostsWithAP_eter2.baseStation.app[0] trac 3.0491933822632
scalar WirelessHostsWithAP_eter2.baseStation.app[0] trac 3.060072183609
scalar WirelessHostsWithAP_eter2.baseStation.app[0] trac 3.0709567070007
scalar WirelessHostsWithAP_eter2.baseStation.app[0] trac 3.0818471908569
scalar WirelessHostsWithAP_eter2.baseStation.app[0] trac 3.0927436351776
scalar WirelessHostsWithAP_eter2.baseStation.app[0] trac 3.1036460399628
scalar WirelessHostsWithAP_eter2.baseStation.app[0] trac 3.1145544052124
scalar WirelessHostsWithAP_eter2.baseStation.app[0] trac 3.1254687309265
scalar WirelessHostsWithAP_eter2.baseStation.app[0] trac 3.1363890171051
scalar WirelessHostsWithAP_eter2.baseStation.app[0] trac 3.1473155021667
scalar WirelessHostsWithAP_eter2.baseStation.app[0] trac 3.0650568008423
scalar WirelessHostsWithAP_eter2.baseStation.app[0] trac 3.0759470462799
scalar WirelessHostsWithAP_eter2.baseStation.app[0] trac 3.0868434906006
scalar WirelessHostsWithAP_eter2.baseStation.app[0] trac 3.019855260849
scalar WirelessHostsWithAP_eter2.baseStation.app[0] trac 3.0307233333588
scalar WirelessHostsWithAP_eter2.baseStation.app[0] trac 3.041597366333
scalar WirelessHostsWithAP_eter2.baseStation.app[0] trac 3.0524773597717
scalar WirelessHostsWithAP_eter2.baseStation.app[0] trac 3.0633630752563
scalar WirelessHostsWithAP_eter2.baseStation.app[0] trac 3.0742547512054
scalar WirelessHostsWithAP_eter2.baseStation.app[0] trac 3.0851521492004
scalar WirelessHostsWithAP_eter2.baseStation.app[0] trac 3.0960557460785
scalar WirelessHostsWithAP_eter2.baseStation.app[0] trac 3.1069650650024
scalar WirelessHostsWithAP_eter2.baseStation.app[0] trac 3.1178805828094
scalar WirelessHostsWithAP_eter2.baseStation.app[0] trac 3.1288020610809
scalar WirelessHostsWithAP_eter2.baseStation.app[0] trac 3.1397294998169
scalar WirelessHostsWithAP_eter2.baseStation.app[0] trac 3.1506628990173
scalar WirelessHostsWithAP_eter2.baseStation.app[0] trac 3.1616024971008
scalar WirelessHostsWithAP_eter2.baseStation.app[0] trac 3.1725480556488
scalar WirelessHostsWithAP_eter2.baseStation.app[0] trac 3.1834998130798
scalar WirelessHostsWithAP_eter2.baseStation.app[0] trac 3.1944575309753
scalar WirelessHostsWithAP_eter2.baseStation.app[0] trac 3.2054214477539
scalar WirelessHostsWithAP_eter2.baseStation.app[0] trac 3.2163915634155
scalar WirelessHostsWithAP_eter2.baseStation.app[0] trac 3.1256165504456
scalar WirelessHostsWithAP_eter2.baseStation.app[0] trac 3.1365458965302
scalar WirelessHostsWithAP_eter2.baseStation.app[0] trac 3.0633099079132
scalar WirelessHostsWithAP_eter2.baseStation.app[0] trac 3.0742073059082
scalar WirelessHostsWithAP_eter2.baseStation.app[0] trac 3.0851106643677
scalar WirelessHostsWithAP_eter2.baseStation.app[0] trac 3.0960199832916
scalar WirelessHostsWithAP_eter2.baseStation.app[0] trac 3.1069352626801
scalar WirelessHostsWithAP_eter2.baseStation.app[0] trac 3.117856502533
scalar WirelessHostsWithAP_eter2.baseStation.app[0] trac 3.1287839412689
scalar WirelessHostsWithAP_eter2.baseStation.app[0] trac 3.1397171020508
scalar WirelessHostsWithAP_eter2.baseStation.app[0] trac 3.1506564617157
scalar WirelessHostsWithAP_eter2.baseStation.app[0] trac 3.1616017818451
scalar WirelessHostsWithAP_eter2.baseStation.app[0] trac 3.172553062439
scalar WirelessHostsWithAP_eter2.baseStation.app[0] trac 2.9918415546417
scalar WirelessHostsWithAP_eter2.baseStation.app[0] trac 3.0026831626892
scalar WirelessHostsWithAP_eter2.baseStation.app[0] trac 3.0135304927826
scalar WirelessHostsWithAP_eter2.baseStation.app[0] trac 3.0243835449219
scalar WirelessHostsWithAP_eter2.baseStation.app[0] trac 3.0352425575256
scalar WirelessHostsWithAP_eter2.baseStation.app[0] trac 3.0461072921753
scalar WirelessHostsWithAP_eter2.baseStation.app[0] trac 3.0569779872894
scalar WirelessHostsWithAP_eter2.baseStation.app[0] trac 3.067854642868
scalar WirelessHostsWithAP_eter2.baseStation.app[0] trac 3.0046226978302
scalar WirelessHostsWithAP_eter2.baseStation.app[0] trac 2.9369065761566
scalar WirelessHostsWithAP_eter2.baseStation.app[0] trac 2.9477231502533
scalar WirelessHostsWithAP_eter2.baseStation.app[0] trac 2.9585454463959
scalar WirelessHostsWithAP_eter2.baseStation.app[0] trac 2.9693734645844
scalar WirelessHostsWithAP_eter2.baseStation.app[0] trac 2.9802072048187
scalar WirelessHostsWithAP_eter2.baseStation.app[0] trac 2.9910469055176
scalar WirelessHostsWithAP_eter2.baseStation.app[0] trac 3.0018920898438
scalar WirelessHostsWithAP_eter2.baseStation.app[0] trac 3.0127432346344
scalar WirelessHostsWithAP_eter2.baseStation.app[0] trac 3.0236001014709
scalar WirelessHostsWithAP_eter2.baseStation.app[0] trac 3.0236001014709
scalar WirelessHostsWithAP_eter2.baseStation.app[0] trac 3.0344626903534
scalar WirelessHostsWithAP_eter2.baseStation.app[0] trac 3.0453312397003
scalar WirelessHostsWithAP_eter2.baseStation.app[0] trac 3.0562057495117
scalar WirelessHostsWithAP_eter2.baseStation.app[0] trac 3.067085981369
scalar WirelessHostsWithAP_eter2.baseStation.app[0] trac 3.0779721736908
scalar WirelessHostsWithAP_eter2.baseStation.app[0] trac 3.0888643264771
scalar WirelessHostsWithAP_eter2.baseStation.app[0] trac 3.0997624397278
scalar WirelessHostsWithAP_eter2.baseStation.app[0] trac 3.110666513443
scalar WirelessHostsWithAP_eter2.baseStation.app[0] trac 3.1215765476227
scalar WirelessHostsWithAP_eter2.baseStation.app[0] trac 3.1324925422668
scalar WirelessHostsWithAP_eter2.baseStation.app[0] trac 3.1434147357941
scalar WirelessHostsWithAP_eter2.baseStation.app[0] trac 3.1543428897858
scalar WirelessHostsWithAP_eter2.baseStation.app[0] trac 3.1652770042419
scalar WirelessHostsWithAP_eter2.baseStation.app[0] trac 3.1762173175812
scalar WirelessHostsWithAP_eter2.baseStation.app[0] trac 3.1871638298035
scalar WirelessHostsWithAP_eter2.baseStation.app[0] trac 3.1109595298767
scalar WirelessHostsWithAP_eter2.baseStation.app[0] trac 3.1218736171722
scalar WirelessHostsWithAP_eter2.baseStation.app[0] trac 3.0418620109558
scalar WirelessHostsWithAP_eter2.baseStation.app[0] trac 3.0527408123016
scalar WirelessHostsWithAP_eter2.baseStation.app[0] trac 3.0636255741119
scalar WirelessHostsWithAP_eter2.baseStation.app[0] trac 3.0745160579681
scalar WirelessHostsWithAP_eter2.baseStation.app[0] trac 3.0854127407074
scalar WirelessHostsWithAP_eter2.baseStation.app[0] trac 2.9893593788147
scalar WirelessHostsWithAP_eter2.baseStation.app[0] trac 3.0001995563507
scalar WirelessHostsWithAP_eter2.baseStation.app[0] trac 3.0110454559326
scalar WirelessHostsWithAP_eter2.baseStation.app[0] trac 3.0218970775604
scalar WirelessHostsWithAP_eter2.baseStation.app[0] trac 3.0327546596527
scalar WirelessHostsWithAP_eter2.baseStation.app[0] trac 3.0436182022095
scalar WirelessHostsWithAP_eter2.baseStation.app[0] trac 3.0544874668121
scalar WirelessHostsWithAP_eter2.baseStation.app[0] trac 3.0653624534607
scalar WirelessHostsWithAP_eter2.baseStation.app[0] trac 3.0762436389923
scalar WirelessHostsWithAP_eter2.baseStation.app[0] trac 3.0871305465698
scalar WirelessHostsWithAP_eter2.baseStation.app[0] trac 3.0980234146118
scalar WirelessHostsWithAP_eter2.baseStation.app[0] trac 3.1089224815369
scalar WirelessHostsWithAP_eter2.baseStation.app[0] trac 3.1198272705078
scalar WirelessHostsWithAP_eter2.baseStation.app[0] trac 3.1307382583618
scalar WirelessHostsWithAP_eter2.baseStation.app[0] trac 3.0613260269165
scalar WirelessHostsWithAP_eter2.baseStation.app[0] trac 3.0722081661224
scalar WirelessHostsWithAP_eter2.baseStation.app[0] trac 2.9980618953705
scalar WirelessHostsWithAP_eter2.baseStation.app[0] trac 3.0089123249054
scalar WirelessHostsWithAP_eter2.baseStation.app[0] trac 3.0197684764862
scalar WirelessHostsWithAP_eter2.baseStation.app[0] trac 3.0306305885315
scalar WirelessHostsWithAP_eter2.baseStation.app[0] trac 3.0414986610413
scalar WirelessHostsWithAP_eter2.baseStation.app[0] trac 3.0523724555969
scalar WirelessHostsWithAP_eter2.baseStation.app[0] trac 3.0632522106171
scalar WirelessHostsWithAP_eter2.baseStation.app[0] trac 3.0741376876831
scalar WirelessHostsWithAP_eter2.baseStation.app[0] trac 3.0850291252136
scalar WirelessHostsWithAP_eter2.baseStation.app[0] trac 3.0959267616272
scalar WirelessHostsWithAP_eter2.baseStation.app[0] trac 3.1068301200867
scalar WirelessHostsWithAP_eter2.baseStation.app[0] trac 3.1177394390106
scalar WirelessHostsWithAP_eter2.baseStation.app[0] trac 3.1286549568176
scalar WirelessHostsWithAP_eter2.baseStation.app[0] trac 3.1395761966705
scalar WirelessHostsWithAP_eter2.baseStation.app[0] trac 3.1505036354065
scalar WirelessHostsWithAP_eter2.baseStation.app[0] trac 3.1614372730255
scalar WirelessHostsWithAP_eter2.baseStation.app[0] trac 3.172376871109
scalar WirelessHostsWithAP_eter2.baseStation.app[0] trac 3.183322429657
scalar WirelessHostsWithAP_eter2.baseStation.app[0] trac 3.194274187088
scalar WirelessHostsWithAP_eter2.baseStation.app[0] trac 3.2052321434021
scalar WirelessHostsWithAP_eter2.baseStation.app[0] trac 3.126770734787
scalar WirelessHostsWithAP_eter2.baseStation.app[0] trac 3.0557336807251
scalar WirelessHostsWithAP_eter2.baseStation.app[0] trac 3.0666217803955
scalar WirelessHostsWithAP_eter2.baseStation.app[0] trac 3.0775158405304
scalar WirelessHostsWithAP_eter2.baseStation.app[0] trac 3.0884158611298
scalar WirelessHostsWithAP_eter2.baseStation.app[0] trac 3.099321603775
scalar WirelessHostsWithAP_eter2.baseStation.app[0] trac 3.1102335453033
scalar WirelessHostsWithAP_eter2.baseStation.app[0] trac 3.1211514472961
scalar WirelessHostsWithAP_eter2.baseStation.app[0] trac 3.1320753097534
scalar WirelessHostsWithAP_eter2.baseStation.app[0] trac 3.1430051326752
scalar WirelessHostsWithAP_eter2.baseStation.app[0] trac 3.1539409160614
scalar WirelessHostsWithAP_eter2.baseStation.app[0] trac 3.1648828983307
scalar WirelessHostsWithAP_eter2.baseStation.app[0] trac 3.175831079483
scalar WirelessHostsWithAP_eter2.baseStation.app[0] trac 3.1867852210999
scalar WirelessHostsWithAP_eter2.baseStation.app[0] trac 3.1977455615997
scalar WirelessHostsWithAP_eter2.baseStation.app[0] trac 3.2087118625641
scalar WirelessHostsWithAP_eter2.baseStation.app[0] trac 3.2196843624115
scalar WirelessHostsWithAP_eter2.baseStation.app[0] trac 3.2306632995605
scalar WirelessHostsWithAP_eter2.baseStation.app[0] trac 3.2416481971741
scalar WirelessHostsWithAP_eter2.baseStation.app[0] trac 3.2526392936707
scalar WirelessHostsWithAP_eter2.baseStation.app[0] trac 3.2636368274689
scalar WirelessHostsWithAP_eter2.baseStation.app[0] trac 3.1674094200134
scalar WirelessHostsWithAP_eter2.baseStation.app[0] trac 3.1783630847931
scalar WirelessHostsWithAP_eter2.baseStation.app[0] trac 3.1004440784454
scalar WirelessHostsWithAP_eter2.baseStation.app[0] trac 3.1113634109497
scalar WirelessHostsWithAP_eter2.baseStation.app[0] trac 3.1222887039185
scalar WirelessHostsWithAP_eter2.baseStation.app[0] trac 3.1332199573517
scalar WirelessHostsWithAP_eter2.baseStation.app[0] trac 3.144157409668
scalar WirelessHostsWithAP_eter2.baseStation.app[0] trac 3.1551005840302
scalar WirelessHostsWithAP_eter2.baseStation.app[0] trac 2.9784281253815
scalar WirelessHostsWithAP_eter2.baseStation.app[0] trac 2.9892630577087
scalar WirelessHostsWithAP_eter2.baseStation.app[0] trac 3.0001039505005
scalar WirelessHostsWithAP_eter2.baseStation.app[0] trac 3.0109505653381
scalar WirelessHostsWithAP_eter2.baseStation.app[0] trac 3.0218029022217
scalar WirelessHostsWithAP_eter2.baseStation.app[0] trac 3.0326611995697
scalar WirelessHostsWithAP_eter2.baseStation.app[0] trac 3.0435252189636
scalar WirelessHostsWithAP_eter2.baseStation.app[0] trac 3.054395198822
scalar WirelessHostsWithAP_eter2.baseStation.app[0] trac 3.0652711391449
scalar WirelessHostsWithAP_eter2.baseStation.app[0] trac 3.0761528015137
scalar WirelessHostsWithAP_eter2.baseStation.app[0] trac 3.0870404243469
scalar WirelessHostsWithAP_eter2.baseStation.app[0] trac 3.0979340076447
scalar WirelessHostsWithAP_eter2.baseStation.app[0] trac 3.1088337898254
scalar WirelessHostsWithAP_eter2.baseStation.app[0] trac 3.1197392940521
scalar WirelessHostsWithAP_eter2.baseStation.app[0] trac 3.0414614677429
scalar WirelessHostsWithAP_eter2.baseStation.app[0] trac 3.05233335495
scalar WirelessHostsWithAP_eter2.baseStation.app[0] trac 2.979992389679
scalar WirelessHostsWithAP_eter2.baseStation.app[0] trac 2.9908332824707
scalar WirelessHostsWithAP_eter2.baseStation.app[0] trac 3.0016801357269
scalar WirelessHostsWithAP_eter2.baseStation.app[0] trac 3.0125327110291
scalar WirelessHostsWithAP_eter2.baseStation.app[0] trac 3.0233910083771
scalar WirelessHostsWithAP_eter2.baseStation.app[0] trac 3.034255027771
scalar WirelessHostsWithAP_eter2.baseStation.app[0] trac 3.0451250076294
scalar WirelessHostsWithAP_eter2.baseStation.app[0] trac 3.0560009479523
scalar WirelessHostsWithAP_eter2.baseStation.app[0] trac 3.0668828487396
scalar WirelessHostsWithAP_eter2.baseStation.app[0] trac 3.0777704715729
[...]
scalar WirelessHostsWithAP_eter2.baseStation.app[0] qtable|2|24 0
scalar WirelessHostsWithAP_eter2.baseStation.app[0] qtable|2|25 0
scalar WirelessHostsWithAP_eter2.baseStation.app[0] qtable|2|26 0
scalar WirelessHostsWithAP_eter2.baseStation.app[0] qtable|2|27 0
scalar WirelessHostsWithAP_eter2.baseStation.app[0] qtable|2|28 0
scalar WirelessHostsWithAP_eter2.baseStation.app[0] qtable|2|29 0
scalar WirelessHostsWithAP_eter2.baseStation.app[0] qtable|2|30 0
scalar WirelessHostsWithAP_eter2.baseStation.app[0] qtable|2|31 0
scalar WirelessHostsWithAP_eter2.baseStation.app[0] qtable|2|32 0
scalar WirelessHostsWithAP_eter2.baseStation.app[0] qtable|2|33 0
scalar WirelessHostsWithAP_eter2.baseStation.app[0] qtable|2|34 0
scalar WirelessHostsWithAP_eter2.baseStation.app[0] qtable|2|35 0
scalar WirelessHostsWithAP_eter2.baseStation.app[0] qtable|2|36 0
scalar WirelessHostsWithAP_eter2.baseStation.app[0] qtable|2|37 0
scalar WirelessHostsWithAP_eter2.baseStation.app[0] qtable|2|38 0
scalar WirelessHostsWithAP_eter2.baseStation.app[0] qtable|2|39 0
scalar WirelessHostsWithAP_eter2.baseStation.app[0] qtable|2|40 0
scalar WirelessHostsWithAP_eter2.baseStation.app[0] qtable|2|41 0
scalar WirelessHostsWithAP_eter2.baseStation.app[0] qtable|2|42 0
scalar WirelessHostsWithAP_eter2.baseStation.app[0] qtable|2|43 0
scalar WirelessHostsWithAP_eter2.baseStation.app[0] qtable|2|44 0
scalar WirelessHostsWithAP_eter2.baseStation.app[0] qtable|2|45 0
scalar WirelessHostsWithAP_eter2.baseStation.app[0] qtable|2|46 0
scalar WirelessHostsWithAP_eter2.baseStation.app[0] qtable|2|47 0
scalar WirelessHostsWithAP_eter2.baseStation.app[0] qtable|2|48 0
scalar WirelessHostsWithAP_eter2.baseStation.app[0] qtable|2|49 0
scalar WirelessHostsWithAP_eter2.baseStation.app[0] qtable|2|50 0
scalar WirelessHostsWithAP_eter2.baseStation.app[0] qtable|2|51 0
scalar WirelessHostsWithAP_eter2.baseStation.app[0] qtable|2|52 0
scalar WirelessHostsWithAP_eter2.baseStation.app[0] qtable|2|53 0
scalar WirelessHostsWithAP_eter2.baseStation.app[0] qtable|2|54 0
scalar WirelessHostsWithAP_eter2.baseStation.app[0] qtable|2|55 0
scalar WirelessHostsWithAP_eter2.baseStation.app[0] qtable|2|56 0
scalar WirelessHostsWithAP_eter2.baseStation.app[0] qtable|2|57 0
scalar WirelessHostsWithAP_eter2.baseStation.app[0] qtable|2|58 0
scalar WirelessHostsWithAP_eter2.baseStation.app[0] qtable|2|59 0
scalar WirelessHostsWithAP_eter2.baseStation.app[0] qtable|2|60 0
scalar WirelessHostsWithAP_eter2.baseStation.app[0] qtable|2|61 0
scalar WirelessHostsWithAP_eter2.baseStation.app[0] qtable|2|62 0
scalar WirelessHostsWithAP_eter2.baseStation.app[0] qtable|2|63 0
scalar WirelessHostsWithAP_eter2.baseStation.app[0] qtable|2|64 0
scalar WirelessHostsWithAP_eter2.baseStation.app[0] qtable|2|65 0
scalar WirelessHostsWithAP_eter2.baseStation.app[0] qtable|2|66 0
scalar WirelessHostsWithAP_eter2.baseStation.app[0] qtable|2|67 0
scalar WirelessHostsWithAP_eter2.baseStation.app[0] qtable|2|68 0
scalar WirelessHostsWithAP_eter2.baseStation.app[0] qtable|2|69 0
scalar WirelessHostsWithAP_eter2.baseStation.app[0] qtable|2|70 0
scalar WirelessHostsWithAP_eter2.baseStation.app[0] qtable|2|71 0
scalar WirelessHostsWithAP_eter2.baseStation.app[0] qtable|2|72 0
scalar WirelessHostsWithAP_eter2.baseStation.app[0] qtable|2|73 0
scalar WirelessHostsWithAP_eter2.baseStation.app[0] qtable|2|74 0
scalar WirelessHostsWithAP_eter2.baseStation.app[0] qtable|2|75 0
scalar WirelessHostsWithAP_eter2.baseStation.app[0] qtable|2|76 0
scalar WirelessHostsWithAP_eter2.baseStation.app[0] qtable|2|77 0
scalar WirelessHostsWithAP_eter2.baseStation.app[0] qtable|2|78 0
scalar WirelessHostsWithAP_eter2.baseStation.app[0] qtable|2|79 0
scalar WirelessHostsWithAP_eter2.baseStation.app[0] qtable|2|80 0
scalar WirelessHostsWithAP_eter2.baseStation.app[0] qtable|2|81 0
scalar WirelessHostsWithAP_eter2.baseStation.app[0] qtable|2|82 0
scalar WirelessHostsWithAP_eter2.baseStation.app[0] qtable|2|83 0
scalar WirelessHostsWithAP_eter2.baseStation.app[0] qtable|2|84 0
scalar WirelessHostsWithAP_eter2.baseStation.app[0] qtable|2|85 0
scalar WirelessHostsWithAP_eter2.baseStation.app[0] qtable|2|86 0
scalar WirelessHostsWithAP_eter2.baseStation.app[0] qtable|2|87 0
scalar WirelessHostsWithAP_eter2.baseStation.app[0] qtable|2|88 0
scalar WirelessHostsWithAP_eter2.baseStation.app[0] qtable|2|89 0
scalar WirelessHostsWithAP_eter2.baseStation.app[0] qtable|2|90 0
scalar WirelessHostsWithAP_eter2.baseStation.app[0] qtable|2|91 0
scalar WirelessHostsWithAP_eter2.baseStation.app[0] qtable|2|92 0
scalar WirelessHostsWithAP_eter2.baseStation.app[0] qtable|2|93 0
scalar WirelessHostsWithAP_eter2.baseStation.app[0] qtable|2|94 0
scalar WirelessHostsWithAP_eter2.baseStation.app[0] qtable|2|95 0
scalar WirelessHostsWithAP_eter2.baseStation.app[0] qtable|2|96 0
scalar WirelessHostsWithAP_eter2.baseStation.app[0] qtable|2|97 0
scalar WirelessHostsWithAP_eter2.baseStation.app[0] qtable|2|98 0
scalar WirelessHostsWithAP_eter2.baseStation.app[0] qtable|2|99 0
scalar WirelessHostsWithAP_eter2.baseStation.app[0] qtable|2|100 0
scalar WirelessHostsWithAP_eter2.baseStation.app[0] qtable|2|101 0
scalar WirelessHostsWithAP_eter2.baseStation.app[0] qtable|2|102 0
scalar WirelessHostsWithAP_eter2.baseStation.app[0] qtable|2|103 0
scalar WirelessHostsWithAP_eter2.baseStation.app[0] qtable|2|104 0
scalar WirelessHostsWithAP_eter2.baseStation.app[0] qtable|2|105 0
scalar WirelessHostsWithAP_eter2.baseStation.app[0] qtable|2|106 0
scalar WirelessHostsWithAP_eter2.baseStation.app[0] qtable|2|107 0
scalar WirelessHostsWithAP_eter2.baseStation.app[0] policy_e2 0
scalar WirelessHostsWithAP_eter2.baseStation.app[0] qtable|3|0 0
scalar WirelessHostsWithAP_eter2.baseStation.app[0] qtable|3|1 0
scalar WirelessHostsWithAP_eter2.baseStation.app[0] qtable|3|2 0
scalar WirelessHostsWithAP_eter2.baseStation.app[0] qtable|3|3 0
scalar WirelessHostsWithAP_eter2.baseStation.app[0] qtable|3|4 0
scalar WirelessHostsWithAP_eter2.baseStation.app[0] qtable|3|5 0
scalar WirelessHostsWithAP_eter2.baseStation.app[0] qtable|3|6 0
scalar WirelessHostsWithAP_eter2.baseStation.app[0] qtable|3|7 0
scalar WirelessHostsWithAP_eter2.baseStation.app[0] qtable|3|8 0
scalar WirelessHostsWithAP_eter2.baseStation.app[0] qtable|3|9 0
scalar WirelessHostsWithAP_eter2.baseStation.app[0] qtable|3|10 0
scalar WirelessHostsWithAP_eter2.baseStation.app[0] qtable|3|11 0
scalar WirelessHostsWithAP_eter2.baseStation.app[0] qtable|3|12 0
scalar WirelessHostsWithAP_eter2.baseStation.app[0] qtable|3|13 0
scalar WirelessHostsWithAP_eter2.baseStation.app[0] qtable|3|14 0
scalar WirelessHostsWithAP_eter2.baseStation.app[0] qtable|3|15 0
scalar WirelessHostsWithAP_eter2.baseStation.app[0] qtable|3|16 0
scalar WirelessHostsWithAP_eter2.baseStation.app[0] qtable|3|17 0
scalar WirelessHostsWithAP_eter2.baseStation.app[0] qtable|3|18 0
scalar WirelessHostsWithAP_eter2.baseStation.app[0] qtable|3|19 0
scalar WirelessHostsWithAP_eter2.baseStation.app[0] qtable|3|20 0
scalar WirelessHostsWithAP_eter2.baseStation.app[0] qtable|3|21 0
scalar WirelessHostsWithAP_eter2.baseStation.app[0] qtable|3|22 0
scalar WirelessHostsWithAP_eter2.baseStation.app[0] qtable|3|23 0
scalar WirelessHostsWithAP_eter2.baseStation.app[0] qtable|3|24 0
scalar WirelessHostsWithAP_eter2.baseStation.app[0] qtable|3|25 0
scalar WirelessHostsWithAP_eter2.baseStation.app[0] qtable|3|26 0
scalar WirelessHostsWithAP_eter2.baseStation.app[0] qtable|3|27 0
scalar WirelessHostsWithAP_eter2.baseStation.app[0] qtable|3|28 0
scalar WirelessHostsWithAP_eter2.baseStation.app[0] qtable|3|29 0
scalar WirelessHostsWithAP_eter2.baseStation.app[0] qtable|3|30 0
scalar WirelessHostsWithAP_eter2.baseStation.app[0] qtable|3|31 0
scalar WirelessHostsWithAP_eter2.baseStation.app[0] qtable|3|32 0
scalar WirelessHostsWithAP_eter2.baseStation.app[0] qtable|3|33 0
scalar WirelessHostsWithAP_eter2.baseStation.app[0] qtable|3|34 0
scalar WirelessHostsWithAP_eter2.baseStation.app[0] qtable|3|35 0
scalar WirelessHostsWithAP_eter2.baseStation.app[0] qtable|3|36 0
scalar WirelessHostsWithAP_eter2.baseStation.app[0] qtable|3|37 0
scalar WirelessHostsWithAP_eter2.baseStation.app[0] qtable|3|38 0
scalar WirelessHostsWithAP_eter2.baseStation.app[0] qtable|3|39 0
scalar WirelessHostsWithAP_eter2.baseStation.app[0] qtable|3|40 0
scalar WirelessHostsWithAP_eter2.baseStation.app[0] qtable|3|41 0
scalar WirelessHostsWithAP_eter2.baseStation.app[0] qtable|3|42 0
scalar WirelessHostsWithAP_eter2.baseStation.app[0] qtable|3|43 0
scalar WirelessHostsWithAP_eter2.baseStation.app[0] qtable|3|44 0
scalar WirelessHostsWithAP_eter2.baseStation.app[0] qtable|3|45 0
scalar WirelessHostsWithAP_eter2.baseStation.app[0] qtable|3|46 0
scalar WirelessHostsWithAP_eter2.baseStation.app[0] qtable|3|47 0
scalar WirelessHostsWithAP_eter2.baseStation.app[0] qtable|3|48 0
scalar WirelessHostsWithAP_eter2.baseStation.app[0] qtable|3|49 0
scalar WirelessHostsWithAP_eter2.baseStation.app[0] qtable|3|50 0
scalar WirelessHostsWithAP_eter2.baseStation.app[0] qtable|3|51 0
scalar WirelessHostsWithAP_eter2.baseStation.app[0] qtable|3|52 0
scalar WirelessHostsWithAP_eter2.baseStation.app[0] qtable|3|53 0
scalar WirelessHostsWithAP_eter2.baseStation.app[0] qtable|3|54 0
scalar WirelessHostsWithAP_eter2.baseStation.app[0] qtable|3|55 0
scalar WirelessHostsWithAP_eter2.baseStation.app[0] qtable|3|56 0
scalar WirelessHostsWithAP_eter2.baseStation.app[0] qtable|3|57 0
scalar WirelessHostsWithAP_eter2.baseStation.app[0] qtable|3|58 0
scalar WirelessHostsWithAP_eter2.baseStation.app[0] qtable|3|59 0
scalar WirelessHostsWithAP_eter2.baseStation.app[0] qtable|3|60 0
scalar WirelessHostsWithAP_eter2.baseStation.app[0] qtable|3|61 0
scalar WirelessHostsWithAP_eter2.baseStation.app[0] qtable|3|62 0
scalar WirelessHostsWithAP_eter2.baseStation.app[0] qtable|3|63 0
scalar WirelessHostsWithAP_eter2.baseStation.app[0] qtable|3|64 0
scalar WirelessHostsWithAP_eter2.baseStation.app[0] qtable|3|65 0
scalar WirelessHostsWithAP_eter2.baseStation.app[0] qtable|3|66 0
scalar WirelessHostsWithAP_eter2.baseStation.app[0] qtable|3|67 0
scalar WirelessHostsWithAP_eter2.baseStation.app[0] qtable|3|68 0
scalar WirelessHostsWithAP_eter2.baseStation.app[0] qtable|3|69 0
scalar WirelessHostsWithAP_eter2.baseStation.app[0] qtable|3|70 0
scalar WirelessHostsWithAP_eter2.baseStation.app[0] qtable|3|71 0
scalar WirelessHostsWithAP_eter2.baseStation.app[0] qtable|3|72 0
scalar WirelessHostsWithAP_eter2.baseStation.app[0] qtable|3|73 0
scalar WirelessHostsWithAP_eter2.baseStation.app[0] qtable|3|74 0
scalar WirelessHostsWithAP_eter2.baseStation.app[0] qtable|3|75 0
scalar WirelessHostsWithAP_eter2.baseStation.app[0] qtable|3|76 0
scalar WirelessHostsWithAP_eter2.baseStation.app[0] qtable|3|77 0
scalar WirelessHostsWithAP_eter2.baseStation.app[0] qtable|3|78 0
scalar WirelessHostsWithAP_eter2.baseStation.app[0] qtable|3|79 0
scalar WirelessHostsWithAP_eter2.baseStation.app[0] qtable|3|80 0
scalar WirelessHostsWithAP_eter2.baseStation.app[0] qtable|3|81 0
scalar WirelessHostsWithAP_eter2.baseStation.app[0] qtable|3|82 0
scalar WirelessHostsWithAP_eter2.baseStation.app[0] qtable|3|83 0
scalar WirelessHostsWithAP_eter2.baseStation.app[0] qtable|3|84 0
scalar WirelessHostsWithAP_eter2.baseStation.app[0] qtable|3|85 0
scalar WirelessHostsWithAP_eter2.baseStation.app[0] qtable|3|86 0
scalar WirelessHostsWithAP_eter2.baseStation.app[0] qtable|3|87 0
scalar WirelessHostsWithAP_eter2.baseStation.app[0] qtable|3|88 0
scalar WirelessHostsWithAP_eter2.baseStation.app[0] qtable|3|89 0
scalar WirelessHostsWithAP_eter2.baseStation.app[0] qtable|3|90 0
scalar WirelessHostsWithAP_eter2.baseStation.app[0] qtable|3|91 0
scalar WirelessHostsWithAP_eter2.baseStation.app[0] qtable|3|92 0
scalar WirelessHostsWithAP_eter2.baseStation.app[0] qtable|3|93 0
scalar WirelessHostsWithAP_eter2.baseStation.app[0] qtable|3|94 0
scalar WirelessHostsWithAP_eter2.baseStation.app[0] qtable|3|95 0
scalar WirelessHostsWithAP_eter2.baseStation.app[0] qtable|3|96 0
scalar WirelessHostsWithAP_eter2.baseStation.app[0] qtable|3|97 0
scalar WirelessHostsWithAP_eter2.baseStation.app[0] qtable|3|98 0
scalar WirelessHostsWithAP_eter2.baseStation.app[0] qtable|3|99 0
scalar WirelessHostsWithAP_eter2.baseStation.app[0] qtable|3|100 0
scalar WirelessHostsWithAP_eter2.baseStation.app[0] qtable|3|101 0
scalar WirelessHostsWithAP_eter2.baseStation.app[0] qtable|3|102 0
scalar WirelessHostsWithAP_eter2.baseStation.app[0] qtable|3|103 0
scalar WirelessHostsWithAP_eter2.baseStation.app[0] qtable|3|104 0
scalar WirelessHostsWithAP_eter2.baseStation.app[0] qtable|3|105 0
scalar WirelessHostsWithAP_eter2.baseStation.app[0] qtable|3|106 0
scalar WirelessHostsWithAP_eter2.baseStation.app[0] qtable|3|107 0
scalar WirelessHostsWithAP_eter2.baseStation.app[0] policy_e3 0
scalar WirelessHostsWithAP_eter2.baseStation.app[0] qtable|4|0 0
scalar WirelessHostsWithAP_eter2.baseStation.app[0] qtable|4|1 0
scalar WirelessHostsWithAP_eter2.baseStation.app[0] qtable|4|2 0
scalar WirelessHostsWithAP_eter2.baseStation.app[0] qtable|4|3 0
scalar WirelessHostsWithAP_eter2.baseStation.app[0] qtable|4|4 0
scalar WirelessHostsWithAP_eter2.baseStation.app[0] qtable|4|5 0
scalar WirelessHostsWithAP_eter2.baseStation.app[0] qtable|4|6 0
scalar WirelessHostsWithAP_eter2.baseStation.app[0] qtable|4|7 0
scalar WirelessHostsWithAP_eter2.baseStation.app[0] qtable|4|8 0
scalar WirelessHostsWithAP_eter2.baseStation.app[0] qtable|4|9 0
scalar WirelessHostsWithAP_eter2.baseStation.app[0] qtable|4|10 0
scalar WirelessHostsWithAP_eter2.baseStation.app[0] qtable|4|11 0
scalar WirelessHostsWithAP_eter2.baseStation.app[0] qtable|4|12 0
scalar WirelessHostsWithAP_eter2.baseStation.app[0] qtable|4|13 0
scalar WirelessHostsWithAP_eter2.baseStation.app[0] qtable|4|14 0
scalar WirelessHostsWithAP_eter2.baseStation.app[0] qtable|4|15 0
scalar WirelessHostsWithAP_eter2.baseStation.app[0] qtable|4|16 0
scalar WirelessHostsWithAP_eter2.baseStation.app[0] qtable|4|17 0
scalar WirelessHostsWithAP_eter2.baseStation.app[0] qtable|4|18 0
scalar WirelessHostsWithAP_eter2.baseStation.app[0] qtable|4|19 0
scalar WirelessHostsWithAP_eter2.baseStation.app[0] qtable|4|20 0
scalar WirelessHostsWithAP_eter2.baseStation.app[0] qtable|4|21 0
scalar WirelessHostsWithAP_eter2.baseStation.app[0] qtable|4|22 0
scalar WirelessHostsWithAP_eter2.baseStation.app[0] qtable|4|23 0
scalar WirelessHostsWithAP_eter2.baseStation.app[0] qtable|4|24 0
scalar WirelessHostsWithAP_eter2.baseStation.app[0] qtable|4|25 0
scalar WirelessHostsWithAP_eter2.baseStation.app[0] qtable|4|26 0
scalar WirelessHostsWithAP_eter2.baseStation.app[0] qtable|4|27 0
scalar WirelessHostsWithAP_eter2.baseStation.app[0] qtable|4|28 0
scalar WirelessHostsWithAP_eter2.baseStation.app[0] qtable|4|29 0
scalar WirelessHostsWithAP_eter2.baseStation.app[0] qtable|4|30 0
scalar WirelessHostsWithAP_eter2.baseStation.app[0] qtable|4|31 0
scalar WirelessHostsWithAP_eter2.baseStation.app[0] qtable|4|32 0
scalar WirelessHostsWithAP_eter2.baseStation.app[0] qtable|4|33 0
scalar WirelessHostsWithAP_eter2.baseStation.app[0] qtable|4|34 0
scalar WirelessHostsWithAP_eter2.baseStation.app[0] qtable|4|35 0
scalar WirelessHostsWithAP_eter2.baseStation.app[0] qtable|4|36 0
scalar WirelessHostsWithAP_eter2.baseStation.app[0] qtable|4|37 0
scalar WirelessHostsWithAP_eter2.baseStation.app[0] qtable|4|38 0
scalar WirelessHostsWithAP_eter2.baseStation.app[0] qtable|4|39 0
scalar WirelessHostsWithAP_eter2.baseStation.app[0] qtable|4|40 0
scalar WirelessHostsWithAP_eter2.baseStation.app[0] qtable|4|41 0
scalar WirelessHostsWithAP_eter2.baseStation.app[0] qtable|4|42 0
scalar WirelessHostsWithAP_eter2.baseStation.app[0] qtable|4|43 0
scalar WirelessHostsWithAP_eter2.baseStation.app[0] qtable|4|44 0
scalar WirelessHostsWithAP_eter2.baseStation.app[0] qtable|4|45 0
scalar WirelessHostsWithAP_eter2.baseStation.app[0] qtable|4|46 0
scalar WirelessHostsWithAP_eter2.baseStation.app[0] qtable|4|47 0
scalar WirelessHostsWithAP_eter2.baseStation.app[0] qtable|4|48 0
scalar WirelessHostsWithAP_eter2.baseStation.app[0] qtable|4|49 0
scalar WirelessHostsWithAP_eter2.baseStation.app[0] qtable|4|50 0
scalar WirelessHostsWithAP_eter2.baseStation.app[0] qtable|4|51 0
scalar WirelessHostsWithAP_eter2.baseStation.app[0] qtable|4|52 0
scalar WirelessHostsWithAP_eter2.baseStation.app[0] qtable|4|53 0
scalar WirelessHostsWithAP_eter2.baseStation.app[0] qtable|4|54 0
scalar WirelessHostsWithAP_eter2.baseStation.app[0] qtable|4|55 0
scalar WirelessHostsWithAP_eter2.baseStation.app[0] qtable|4|56 0
scalar WirelessHostsWithAP_eter2.baseStation.app[0] qtable|4|57 0
scalar WirelessHostsWithAP_eter2.baseStation.app[0] qtable|4|58 0
scalar WirelessHostsWithAP_eter2.baseStation.app[0] qtable|4|59 0
scalar WirelessHostsWithAP_eter2.baseStation.app[0] qtable|4|60 0
scalar WirelessHostsWithAP_eter2.baseStation.app[0] qtable|4|61 0
scalar WirelessHostsWithAP_eter2.baseStation.app[0] qtable|4|62 0
scalar WirelessHostsWithAP_eter2.baseStation.app[0] qtable|4|63 0
scalar WirelessHostsWithAP_eter2.baseStation.app[0] qtable|4|64 0
scalar WirelessHostsWithAP_eter2.baseStation.app[0] qtable|4|65 0
scalar WirelessHostsWithAP_eter2.baseStation.app[0] qtable|4|66 0
scalar WirelessHostsWithAP_eter2.baseStation.app[0] qtable|4|67 0
scalar WirelessHostsWithAP_eter2.baseStation.app[0] qtable|4|68 0
scalar WirelessHostsWithAP_eter2.baseStation.app[0] qtable|4|69 0
scalar WirelessHostsWithAP_eter2.baseStation.app[0] qtable|4|70 0
scalar WirelessHostsWithAP_eter2.baseStation.app[0] qtable|4|71 0
scalar WirelessHostsWithAP_eter2.baseStation.app[0] qtable|4|72 0
scalar WirelessHostsWithAP_eter2.baseStation.app[0] qtable|4|73 0
scalar WirelessHostsWithAP_eter2.baseStation.app[0] qtable|4|74 0
scalar WirelessHostsWithAP_eter2.baseStation.app[0] qtable|4|75 0
scalar WirelessHostsWithAP_eter2.baseStation.app[0] qtable|4|76 0
scalar WirelessHostsWithAP_eter2.baseStation.app[0] qtable|4|77 0
scalar WirelessHostsWithAP_eter2.baseStation.app[0] qtable|4|78 0
scalar WirelessHostsWithAP_eter2.baseStation.app[0] qtable|4|79 0
scalar WirelessHostsWithAP_eter2.baseStation.app[0] qtable|4|80 0
scalar WirelessHostsWithAP_eter2.baseStation.app[0] qtable|4|81 0
scalar WirelessHostsWithAP_eter2.baseStation.app[0] qtable|4|82 0
scalar WirelessHostsWithAP_eter2.baseStation.app[0] qtable|4|83 0
scalar WirelessHostsWithAP_eter2.baseStation.app[0] qtable|4|84 0
scalar WirelessHostsWithAP_eter2.baseStation.app[0] qtable|4|85 0
scalar WirelessHostsWithAP_eter2.baseStation.app[0] qtable|4|86 0
scalar WirelessHostsWithAP_eter2.baseStation.app[0] qtable|4|87 0
scalar WirelessHostsWithAP_eter2.baseStation.app[0] qtable|4|88 0
scalar WirelessHostsWithAP_eter2.baseStation.app[0] qtable|4|89 0
scalar WirelessHostsWithAP_eter2.baseStation.app[0] qtable|4|90 0
scalar WirelessHostsWithAP_eter2.baseStation.app[0] qtable|4|91 0
scalar WirelessHostsWithAP_eter2.baseStation.app[0] qtable|4|92 0
scalar WirelessHostsWithAP_eter2.baseStation.app[0] qtable|4|93 0
scalar WirelessHostsWithAP_eter2.baseStation.app[0] qtable|4|94 0
scalar WirelessHostsWithAP_eter2.baseStation.app[0] qtable|4|95 0
scalar WirelessHostsWithAP_eter2.baseStation.app[0] qtable|4|96 0
scalar WirelessHostsWithAP_eter2.baseStation.app[0] qtable|4|97 0
scalar WirelessHostsWithAP_eter2.baseStation.app[0] qtable|4|98 0
scalar WirelessHostsWithAP_eter2.baseStation.app[0] qtable|4|99 0
scalar WirelessHostsWithAP_eter2.baseStation.app[0] qtable|4|100 0
scalar WirelessHostsWithAP_eter2.baseStation.app[0] qtable|4|101 0
scalar WirelessHostsWithAP_eter2.baseStation.app[0] qtable|4|102 0
scalar WirelessHostsWithAP_eter2.baseStation.app[0] qtable|4|103 0
scalar WirelessHostsWithAP_eter2.baseStation.app[0] qtable|4|104 0
scalar WirelessHostsWithAP_eter2.baseStation.app[0] qtable|4|105 0
scalar WirelessHostsWithAP_eter2.baseStation.app[0] qtable|4|106 0
scalar WirelessHostsWithAP_eter2.baseStation.app[0] qtable|4|107 0
scalar WirelessHostsWithAP_eter2.baseStation.app[0] policy_e4 0
